<?xml version="1.0" encoding="UTF-8"?>

<!-- generated on Fri 24 Feb 2017 11:08:39 PM KST by Netedit Version 0.27.1
<?xml version="1.0" encoding="UTF-8"?>

<configuration xmlns:xsi="http://www.w3.org/2001/XMLSchema-instance" xsi:noNamespaceSchemaLocation="http://sumo.dlr.de/xsd/netedit.exeConfiguration.xsd">

    <input>
        <sumo-net-file value="/home/chrisomnet/usrtmac/net.net.xml"/>
    </input>

    <output>
        <output-file value="/home/chrisomnet/usrtmac/net.net.xml"/>
    </output>

    <processing>
        <no-turnarounds value="true"/>
        <offset.disable-normalization value="true"/>
        <lefthand value="false"/>
        <junctions.corner-detail value="0"/>
    </processing>

</configuration>
-->

<net version="0.27" xmlns:xsi="http://www.w3.org/2001/XMLSchema-instance" xsi:noNamespaceSchemaLocation="http://sumo.dlr.de/xsd/net_file.xsd">

    <location netOffset="0.00,0.00" convBoundary="0.00,0.00,640.00,640.00" origBoundary="0.00,0.00,640.00,640.00" projParameter="!"/>

    <edge id=":0/1_0" function="internal">
        <lane id=":0/1_0_0" index="0" speed="22.22" length="0.10" shape="20.00,328.25 20.00,328.25"/>
        <lane id=":0/1_0_1" index="1" speed="22.22" length="0.10" shape="20.00,324.95 20.00,324.95"/>
        <lane id=":0/1_0_2" index="2" speed="22.22" length="0.10" shape="20.00,321.65 20.00,321.65"/>
    </edge>
    <edge id=":0/1_3" function="internal">
        <lane id=":0/1_3_0" index="0" speed="22.22" length="2.41" shape="20.00,321.65 18.76,320.83 18.35,320.00"/>
    </edge>
    <edge id=":0/1_8" function="internal">
        <lane id=":0/1_8_0" index="0" speed="22.22" length="2.41" shape="18.35,320.00 18.76,319.18 20.00,318.35"/>
    </edge>
    <edge id=":0/1_4" function="internal">
        <lane id=":0/1_4_0" index="0" speed="22.22" length="0.10" shape="20.00,311.75 20.00,311.75"/>
        <lane id=":0/1_4_1" index="1" speed="22.22" length="0.10" shape="20.00,315.05 20.00,315.05"/>
        <lane id=":0/1_4_2" index="2" speed="22.22" length="0.10" shape="20.00,318.35 20.00,318.35"/>
    </edge>
    <edge id=":0/1_7" function="internal">
        <lane id=":0/1_7_0" index="0" speed="22.22" length="2.41" shape="20.00,318.35 21.24,319.17 21.65,320.00"/>
    </edge>
    <edge id=":0/1_9" function="internal">
        <lane id=":0/1_9_0" index="0" speed="22.22" length="2.41" shape="21.65,320.00 21.24,320.82 20.00,321.65"/>
    </edge>
    <edge id=":1/0_0" function="internal">
        <lane id=":1/0_0_0" index="0" speed="22.22" length="0.10" shape="311.75,20.00 311.75,20.00"/>
        <lane id=":1/0_0_1" index="1" speed="22.22" length="0.10" shape="315.05,20.00 315.05,20.00"/>
        <lane id=":1/0_0_2" index="2" speed="22.22" length="0.10" shape="318.35,20.00 318.35,20.00"/>
    </edge>
    <edge id=":1/0_3" function="internal">
        <lane id=":1/0_3_0" index="0" speed="22.22" length="2.41" shape="318.35,20.00 319.17,18.76 320.00,18.35"/>
    </edge>
    <edge id=":1/0_8" function="internal">
        <lane id=":1/0_8_0" index="0" speed="22.22" length="2.41" shape="320.00,18.35 320.82,18.76 321.65,20.00"/>
    </edge>
    <edge id=":1/0_4" function="internal">
        <lane id=":1/0_4_0" index="0" speed="22.22" length="0.10" shape="328.25,20.00 328.25,20.00"/>
        <lane id=":1/0_4_1" index="1" speed="22.22" length="0.10" shape="324.95,20.00 324.95,20.00"/>
        <lane id=":1/0_4_2" index="2" speed="22.22" length="0.10" shape="321.65,20.00 321.65,20.00"/>
    </edge>
    <edge id=":1/0_7" function="internal">
        <lane id=":1/0_7_0" index="0" speed="22.22" length="2.41" shape="321.65,20.00 320.83,21.24 320.00,21.65"/>
    </edge>
    <edge id=":1/0_9" function="internal">
        <lane id=":1/0_9_0" index="0" speed="22.22" length="2.41" shape="320.00,21.65 319.18,21.24 318.35,20.00"/>
    </edge>
    <edge id=":1/1_0" function="internal">
        <lane id=":1/1_0_0" index="0" speed="22.22" length="5.00" shape="311.75,331.35 311.56,329.99 310.98,329.02 310.01,328.44 308.65,328.25"/>
    </edge>
    <edge id=":1/1_1" function="internal">
        <lane id=":1/1_1_0" index="0" speed="22.22" length="22.70" shape="311.75,331.35 311.75,308.65"/>
        <lane id=":1/1_1_1" index="1" speed="22.22" length="22.70" shape="315.05,331.35 315.05,308.65"/>
        <lane id=":1/1_1_2" index="2" speed="22.22" length="22.70" shape="318.35,331.35 318.35,308.65"/>
    </edge>
    <edge id=":1/1_4" function="internal">
        <lane id=":1/1_4_0" index="0" speed="22.22" length="7.47" shape="318.35,331.35 319.16,325.66 320.05,324.18"/>
    </edge>
    <edge id=":1/1_5" function="internal">
        <lane id=":1/1_5_0" index="0" speed="22.22" length="2.41" shape="318.35,331.35 319.17,330.11 320.00,329.70"/>
    </edge>
    <edge id=":1/1_20" function="internal">
        <lane id=":1/1_20_0" index="0" speed="22.22" length="13.50" shape="320.05,324.18 321.60,321.60 325.66,319.16 331.35,318.35"/>
    </edge>
    <edge id=":1/1_21" function="internal">
        <lane id=":1/1_21_0" index="0" speed="22.22" length="2.41" shape="320.00,329.70 320.82,330.11 321.65,331.35"/>
    </edge>
    <edge id=":1/1_6" function="internal">
        <lane id=":1/1_6_0" index="0" speed="22.22" length="5.00" shape="331.35,328.25 329.99,328.44 329.02,329.02 328.44,329.99 328.25,331.35"/>
    </edge>
    <edge id=":1/1_7" function="internal">
        <lane id=":1/1_7_0" index="0" speed="22.22" length="22.70" shape="331.35,324.95 308.65,324.95"/>
    </edge>
    <edge id=":1/1_8" function="internal">
        <lane id=":1/1_8_0" index="0" speed="22.22" length="12.52" shape="331.35,321.65 325.66,320.84 321.60,318.40 320.55,316.65"/>
    </edge>
    <edge id=":1/1_9" function="internal">
        <lane id=":1/1_9_0" index="0" speed="22.22" length="2.41" shape="331.35,321.65 330.11,320.83 329.70,320.00"/>
    </edge>
    <edge id=":1/1_22" function="internal">
        <lane id=":1/1_22_0" index="0" speed="22.22" length="8.44" shape="320.55,316.65 319.16,314.34 318.35,308.65"/>
    </edge>
    <edge id=":1/1_23" function="internal">
        <lane id=":1/1_23_0" index="0" speed="22.22" length="2.41" shape="329.70,320.00 330.11,319.18 331.35,318.35"/>
    </edge>
    <edge id=":1/1_10" function="internal">
        <lane id=":1/1_10_0" index="0" speed="22.22" length="5.00" shape="328.25,308.65 328.44,310.01 329.02,310.98 329.99,311.56 331.35,311.75"/>
    </edge>
    <edge id=":1/1_11" function="internal">
        <lane id=":1/1_11_0" index="0" speed="22.22" length="22.70" shape="328.25,308.65 328.25,331.35"/>
        <lane id=":1/1_11_1" index="1" speed="22.22" length="22.70" shape="324.95,308.65 324.95,331.35"/>
        <lane id=":1/1_11_2" index="2" speed="22.22" length="22.70" shape="321.65,308.65 321.65,331.35"/>
    </edge>
    <edge id=":1/1_14" function="internal">
        <lane id=":1/1_14_0" index="0" speed="22.22" length="7.47" shape="321.65,308.65 320.84,314.34 319.95,315.82"/>
    </edge>
    <edge id=":1/1_15" function="internal">
        <lane id=":1/1_15_0" index="0" speed="22.22" length="2.41" shape="321.65,308.65 320.83,309.89 320.00,310.30"/>
    </edge>
    <edge id=":1/1_24" function="internal">
        <lane id=":1/1_24_0" index="0" speed="22.22" length="13.50" shape="319.95,315.82 318.40,318.40 314.34,320.84 308.65,321.65"/>
    </edge>
    <edge id=":1/1_25" function="internal">
        <lane id=":1/1_25_0" index="0" speed="22.22" length="2.41" shape="320.00,310.30 319.18,309.89 318.35,308.65"/>
    </edge>
    <edge id=":1/1_16" function="internal">
        <lane id=":1/1_16_0" index="0" speed="22.22" length="5.00" shape="308.65,311.75 310.01,311.56 310.98,310.98 311.56,310.01 311.75,308.65"/>
    </edge>
    <edge id=":1/1_17" function="internal">
        <lane id=":1/1_17_0" index="0" speed="22.22" length="22.70" shape="308.65,315.05 331.35,315.05"/>
    </edge>
    <edge id=":1/1_18" function="internal">
        <lane id=":1/1_18_0" index="0" speed="22.22" length="12.52" shape="308.65,318.35 314.34,319.16 318.40,321.60 319.45,323.35"/>
    </edge>
    <edge id=":1/1_19" function="internal">
        <lane id=":1/1_19_0" index="0" speed="22.22" length="2.41" shape="308.65,318.35 309.89,319.17 310.30,320.00"/>
    </edge>
    <edge id=":1/1_26" function="internal">
        <lane id=":1/1_26_0" index="0" speed="22.22" length="8.44" shape="319.45,323.35 320.84,325.66 321.65,331.35"/>
    </edge>
    <edge id=":1/1_27" function="internal">
        <lane id=":1/1_27_0" index="0" speed="22.22" length="2.41" shape="310.30,320.00 309.89,320.82 308.65,321.65"/>
    </edge>
    <edge id=":1/2_0" function="internal">
        <lane id=":1/2_0_0" index="0" speed="22.22" length="0.10" shape="311.75,620.00 311.75,620.00"/>
        <lane id=":1/2_0_1" index="1" speed="22.22" length="0.10" shape="315.05,620.00 315.05,620.00"/>
        <lane id=":1/2_0_2" index="2" speed="22.22" length="0.10" shape="318.35,620.00 318.35,620.00"/>
    </edge>
    <edge id=":1/2_3" function="internal">
        <lane id=":1/2_3_0" index="0" speed="22.22" length="2.41" shape="318.35,620.00 319.17,618.76 320.00,618.35"/>
    </edge>
    <edge id=":1/2_8" function="internal">
        <lane id=":1/2_8_0" index="0" speed="22.22" length="2.41" shape="320.00,618.35 320.82,618.76 321.65,620.00"/>
    </edge>
    <edge id=":1/2_4" function="internal">
        <lane id=":1/2_4_0" index="0" speed="22.22" length="0.10" shape="328.25,620.00 328.25,620.00"/>
        <lane id=":1/2_4_1" index="1" speed="22.22" length="0.10" shape="324.95,620.00 324.95,620.00"/>
        <lane id=":1/2_4_2" index="2" speed="22.22" length="0.10" shape="321.65,620.00 321.65,620.00"/>
    </edge>
    <edge id=":1/2_7" function="internal">
        <lane id=":1/2_7_0" index="0" speed="22.22" length="2.41" shape="321.65,620.00 320.83,621.24 320.00,621.65"/>
    </edge>
    <edge id=":1/2_9" function="internal">
        <lane id=":1/2_9_0" index="0" speed="22.22" length="2.41" shape="320.00,621.65 319.18,621.24 318.35,620.00"/>
    </edge>
    <edge id=":2/1_0" function="internal">
        <lane id=":2/1_0_0" index="0" speed="22.22" length="0.10" shape="620.00,328.25 620.00,328.25"/>
        <lane id=":2/1_0_1" index="1" speed="22.22" length="0.10" shape="620.00,324.95 620.00,324.95"/>
        <lane id=":2/1_0_2" index="2" speed="22.22" length="0.10" shape="620.00,321.65 620.00,321.65"/>
    </edge>
    <edge id=":2/1_3" function="internal">
        <lane id=":2/1_3_0" index="0" speed="22.22" length="2.41" shape="620.00,321.65 618.76,320.83 618.35,320.00"/>
    </edge>
    <edge id=":2/1_8" function="internal">
        <lane id=":2/1_8_0" index="0" speed="22.22" length="2.41" shape="618.35,320.00 618.76,319.18 620.00,318.35"/>
    </edge>
    <edge id=":2/1_4" function="internal">
        <lane id=":2/1_4_0" index="0" speed="22.22" length="0.10" shape="620.00,311.75 620.00,311.75"/>
        <lane id=":2/1_4_1" index="1" speed="22.22" length="0.10" shape="620.00,315.05 620.00,315.05"/>
        <lane id=":2/1_4_2" index="2" speed="22.22" length="0.10" shape="620.00,318.35 620.00,318.35"/>
    </edge>
    <edge id=":2/1_7" function="internal">
        <lane id=":2/1_7_0" index="0" speed="22.22" length="2.41" shape="620.00,318.35 621.24,319.17 621.65,320.00"/>
    </edge>
    <edge id=":2/1_9" function="internal">
        <lane id=":2/1_9_0" index="0" speed="22.22" length="2.41" shape="621.65,320.00 621.24,320.82 620.00,321.65"/>
    </edge>
    <edge id=":bottom1_0" function="internal">
        <lane id=":bottom1_0_0" index="0" speed="22.22" length="4.82" shape="318.35,0.00 319.17,-1.24 320.00,-1.65 320.82,-1.24 321.65,0.00"/>
    </edge>
    <edge id=":left1_0" function="internal">
        <lane id=":left1_0_0" index="0" speed="22.22" length="4.82" shape="0.00,321.65 -1.24,320.83 -1.65,320.00 -1.24,319.18 0.00,318.35"/>
    </edge>
    <edge id=":right1_0" function="internal">
        <lane id=":right1_0_0" index="0" speed="22.22" length="4.82" shape="640.00,318.35 641.24,319.17 641.65,320.00 641.24,320.82 640.00,321.65"/>
    </edge>
    <edge id=":top1_0" function="internal">
        <lane id=":top1_0_0" index="0" speed="22.22" length="4.82" shape="321.65,640.00 320.83,641.24 320.00,641.65 319.18,641.24 318.35,640.00"/>
    </edge>

    <edge id="0/1to1/1" from="0/1" to="1/1" priority="-1">
        <lane id="0/1to1/1_0" index="0" speed="22.22" length="288.65" shape="20.00,311.75 308.65,311.75"/>
        <lane id="0/1to1/1_1" index="1" speed="22.22" length="288.65" shape="20.00,315.05 308.65,315.05"/>
        <lane id="0/1to1/1_2" index="2" speed="22.22" length="288.65" shape="20.00,318.35 308.65,318.35"/>
    </edge>
    <edge id="0/1toleft1" from="0/1" to="left1" priority="-1">
        <lane id="0/1toleft1_0" index="0" speed="22.22" length="20.00" shape="20.00,328.25 0.00,328.25"/>
        <lane id="0/1toleft1_1" index="1" speed="22.22" length="20.00" shape="20.00,324.95 0.00,324.95"/>
        <lane id="0/1toleft1_2" index="2" speed="22.22" length="20.00" shape="20.00,321.65 0.00,321.65"/>
    </edge>
    <edge id="1/0to1/1" from="1/0" to="1/1" priority="-1">
        <lane id="1/0to1/1_0" index="0" speed="22.22" length="288.65" shape="328.25,20.00 328.25,308.65"/>
        <lane id="1/0to1/1_1" index="1" speed="22.22" length="288.65" shape="324.95,20.00 324.95,308.65"/>
        <lane id="1/0to1/1_2" index="2" speed="22.22" length="288.65" shape="321.65,20.00 321.65,308.65"/>
    </edge>
    <edge id="1/0tobottom1" from="1/0" to="bottom1" priority="-1">
        <lane id="1/0tobottom1_0" index="0" speed="22.22" length="20.00" shape="311.75,20.00 311.75,0.00"/>
        <lane id="1/0tobottom1_1" index="1" speed="22.22" length="20.00" shape="315.05,20.00 315.05,0.00"/>
        <lane id="1/0tobottom1_2" index="2" speed="22.22" length="20.00" shape="318.35,20.00 318.35,0.00"/>
    </edge>
    <edge id="1/1to0/1" from="1/1" to="0/1" priority="-1">
        <lane id="1/1to0/1_0" index="0" speed="22.22" length="288.65" shape="308.65,328.25 20.00,328.25"/>
        <lane id="1/1to0/1_1" index="1" speed="22.22" length="288.65" shape="308.65,324.95 20.00,324.95"/>
        <lane id="1/1to0/1_2" index="2" speed="22.22" length="288.65" shape="308.65,321.65 20.00,321.65"/>
    </edge>
    <edge id="1/1to1/0" from="1/1" to="1/0" priority="-1">
        <lane id="1/1to1/0_0" index="0" speed="22.22" length="288.65" shape="311.75,308.65 311.75,20.00"/>
        <lane id="1/1to1/0_1" index="1" speed="22.22" length="288.65" shape="315.05,308.65 315.05,20.00"/>
        <lane id="1/1to1/0_2" index="2" speed="22.22" length="288.65" shape="318.35,308.65 318.35,20.00"/>
    </edge>
    <edge id="1/1to1/2" from="1/1" to="1/2" priority="-1">
        <lane id="1/1to1/2_0" index="0" speed="22.22" length="288.65" shape="328.25,331.35 328.25,620.00"/>
        <lane id="1/1to1/2_1" index="1" speed="22.22" length="288.65" shape="324.95,331.35 324.95,620.00"/>
        <lane id="1/1to1/2_2" index="2" speed="22.22" length="288.65" shape="321.65,331.35 321.65,620.00"/>
    </edge>
    <edge id="1/1to2/1" from="1/1" to="2/1" priority="-1">
        <lane id="1/1to2/1_0" index="0" speed="22.22" length="288.65" shape="331.35,311.75 620.00,311.75"/>
        <lane id="1/1to2/1_1" index="1" speed="22.22" length="288.65" shape="331.35,315.05 620.00,315.05"/>
        <lane id="1/1to2/1_2" index="2" speed="22.22" length="288.65" shape="331.35,318.35 620.00,318.35"/>
    </edge>
    <edge id="1/2to1/1" from="1/2" to="1/1" priority="-1">
        <lane id="1/2to1/1_0" index="0" speed="22.22" length="288.65" shape="311.75,620.00 311.75,331.35"/>
        <lane id="1/2to1/1_1" index="1" speed="22.22" length="288.65" shape="315.05,620.00 315.05,331.35"/>
        <lane id="1/2to1/1_2" index="2" speed="22.22" length="288.65" shape="318.35,620.00 318.35,331.35"/>
    </edge>
    <edge id="1/2totop1" from="1/2" to="top1" priority="-1">
        <lane id="1/2totop1_0" index="0" speed="22.22" length="20.00" shape="328.25,620.00 328.25,640.00"/>
        <lane id="1/2totop1_1" index="1" speed="22.22" length="20.00" shape="324.95,620.00 324.95,640.00"/>
        <lane id="1/2totop1_2" index="2" speed="22.22" length="20.00" shape="321.65,620.00 321.65,640.00"/>
    </edge>
    <edge id="2/1to1/1" from="2/1" to="1/1" priority="-1">
        <lane id="2/1to1/1_0" index="0" speed="22.22" length="288.65" shape="620.00,328.25 331.35,328.25"/>
        <lane id="2/1to1/1_1" index="1" speed="22.22" length="288.65" shape="620.00,324.95 331.35,324.95"/>
        <lane id="2/1to1/1_2" index="2" speed="22.22" length="288.65" shape="620.00,321.65 331.35,321.65"/>
    </edge>
    <edge id="2/1toright1" from="2/1" to="right1" priority="-1">
        <lane id="2/1toright1_0" index="0" speed="22.22" length="20.00" shape="620.00,311.75 640.00,311.75"/>
        <lane id="2/1toright1_1" index="1" speed="22.22" length="20.00" shape="620.00,315.05 640.00,315.05"/>
        <lane id="2/1toright1_2" index="2" speed="22.22" length="20.00" shape="620.00,318.35 640.00,318.35"/>
    </edge>
    <edge id="bottom1to1/0" from="bottom1" to="1/0" priority="-1">
        <lane id="bottom1to1/0_0" index="0" speed="22.22" length="20.00" shape="328.25,0.00 328.25,20.00"/>
        <lane id="bottom1to1/0_1" index="1" speed="22.22" length="20.00" shape="324.95,0.00 324.95,20.00"/>
        <lane id="bottom1to1/0_2" index="2" speed="22.22" length="20.00" shape="321.65,0.00 321.65,20.00"/>
    </edge>
    <edge id="left1to0/1" from="left1" to="0/1" priority="-1">
        <lane id="left1to0/1_0" index="0" speed="22.22" length="20.00" shape="0.00,311.75 20.00,311.75"/>
        <lane id="left1to0/1_1" index="1" speed="22.22" length="20.00" shape="0.00,315.05 20.00,315.05"/>
        <lane id="left1to0/1_2" index="2" speed="22.22" length="20.00" shape="0.00,318.35 20.00,318.35"/>
    </edge>
    <edge id="right1to2/1" from="right1" to="2/1" priority="-1">
        <lane id="right1to2/1_0" index="0" speed="22.22" length="20.00" shape="640.00,328.25 620.00,328.25"/>
        <lane id="right1to2/1_1" index="1" speed="22.22" length="20.00" shape="640.00,324.95 620.00,324.95"/>
        <lane id="right1to2/1_2" index="2" speed="22.22" length="20.00" shape="640.00,321.65 620.00,321.65"/>
    </edge>
    <edge id="top1to1/2" from="top1" to="1/2" priority="-1">
        <lane id="top1to1/2_0" index="0" speed="22.22" length="20.00" shape="311.75,640.00 311.75,620.00"/>
        <lane id="top1to1/2_1" index="1" speed="22.22" length="20.00" shape="315.05,640.00 315.05,620.00"/>
        <lane id="top1to1/2_2" index="2" speed="22.22" length="20.00" shape="318.35,640.00 318.35,620.00"/>
    </edge>

    <tlLogic id="1/1" type="static" programID="0" offset="0">
        <phase duration="25" state="GGGGggrrrrGGGGggrrrr"/>
        <phase duration="7" state="yyyyggrrrryyyyggrrrr"/>
        <phase duration="6" state="rrrrGGrrrrrrrrGGrrrr"/>
        <phase duration="7" state="rrrryyrrrrrrrryyrrrr"/>
        <phase duration="25" state="rrrrrrGGggrrrrrrGGgg"/>
        <phase duration="7" state="rrrrrryyggrrrrrryygg"/>
        <phase duration="6" state="rrrrrrrrGGrrrrrrrrGG"/>
        <phase duration="7" state="rrrrrrrryyrrrrrrrryy"/>
    </tlLogic>

    <junction id="0/1" type="priority" x="20.00" y="320.00" incLanes="1/1to0/1_0 1/1to0/1_1 1/1to0/1_2 left1to0/1_0 left1to0/1_1 left1to0/1_2" intLanes=":0/1_0_0 :0/1_0_1 :0/1_0_2 :0/1_8_0 :0/1_4_0 :0/1_4_1 :0/1_4_2 :0/1_9_0" shape="20.00,329.85 20.00,310.15 20.00,329.85">
        <request index="0" response="00000000" foes="10000000" cont="0"/>
        <request index="1" response="00000000" foes="10000000" cont="0"/>
        <request index="2" response="00000000" foes="10000000" cont="0"/>
        <request index="3" response="01110000" foes="01110000" cont="1"/>
        <request index="4" response="00000000" foes="00001000" cont="0"/>
        <request index="5" response="00000000" foes="00001000" cont="0"/>
        <request index="6" response="00000000" foes="00001000" cont="0"/>
        <request index="7" response="00000111" foes="00000111" cont="1"/>
    </junction>
    <junction id="1/0" type="priority" x="320.00" y="20.00" incLanes="1/1to1/0_0 1/1to1/0_1 1/1to1/0_2 bottom1to1/0_0 bottom1to1/0_1 bottom1to1/0_2" intLanes=":1/0_0_0 :1/0_0_1 :1/0_0_2 :1/0_8_0 :1/0_4_0 :1/0_4_1 :1/0_4_2 :1/0_9_0" shape="310.15,20.00 329.85,20.00 310.15,20.00">
        <request index="0" response="00000000" foes="10000000" cont="0"/>
        <request index="1" response="00000000" foes="10000000" cont="0"/>
        <request index="2" response="00000000" foes="10000000" cont="0"/>
        <request index="3" response="01110000" foes="01110000" cont="1"/>
        <request index="4" response="00000000" foes="00001000" cont="0"/>
        <request index="5" response="00000000" foes="00001000" cont="0"/>
        <request index="6" response="00000000" foes="00001000" cont="0"/>
        <request index="7" response="00000111" foes="00000111" cont="1"/>
    </junction>
    <junction id="1/1" type="traffic_light" x="320.00" y="320.00" incLanes="1/2to1/1_0 1/2to1/1_1 1/2to1/1_2 2/1to1/1_0 2/1to1/1_1 2/1to1/1_2 1/0to1/1_0 1/0to1/1_1 1/0to1/1_2 0/1to1/1_0 0/1to1/1_1 0/1to1/1_2" intLanes=":1/1_0_0 :1/1_1_0 :1/1_1_1 :1/1_1_2 :1/1_20_0 :1/1_21_0 :1/1_6_0 :1/1_7_0 :1/1_22_0 :1/1_23_0 :1/1_10_0 :1/1_11_0 :1/1_11_1 :1/1_11_2 :1/1_24_0 :1/1_25_0 :1/1_16_0 :1/1_17_0 :1/1_26_0 :1/1_27_0" shape="310.15,331.35 329.85,331.35 331.35,329.85 331.35,310.15 329.85,308.65 310.15,308.65 308.65,310.15 308.65,329.85">
        <request index="0" response="00000000000000000000" foes="10000100000010000000" cont="0"/>
        <request index="1" response="00000000000000000000" foes="01111100000110000000" cont="0"/>
        <request index="2" response="00000000000000000000" foes="01111100000110000000" cont="0"/>
        <request index="3" response="00000000000000000000" foes="01111100000110000000" cont="0"/>
        <request index="4" response="00000011110000000000" foes="01100011111110000000" cont="1"/>
        <request index="5" response="01000011100001000000" foes="01000011100001000000" cont="1"/>
        <request index="6" response="00000011100000000000" foes="01000011100000100000" cont="0"/>
        <request index="7" response="00000111100000011111" foes="11000111100000011111" cont="0"/>
        <request index="8" response="00110111100000011110" foes="00111111100000011110" cont="1"/>
        <request index="9" response="00100000010000010000" foes="00100000010000010000" cont="1"/>
        <request index="10" response="00000000000000000000" foes="00100000001000010000" cont="0"/>
        <request index="11" response="00000000000000000000" foes="01100000000111110000" cont="0"/>
        <request index="12" response="00000000000000000000" foes="01100000000111110000" cont="0"/>
        <request index="13" response="00000000000000000000" foes="01100000000111110000" cont="0"/>
        <request index="14" response="00000000000000001111" foes="11100000000110001111" cont="1"/>
        <request index="15" response="00010000000100001110" foes="00010000000100001110" cont="1"/>
        <request index="16" response="00000000000000001110" foes="00001000000100001110" cont="0"/>
        <request index="17" response="00000111110000011110" foes="00000111111100011110" cont="0"/>
        <request index="18" response="00000111100011011110" foes="00000111100011111110" cont="1"/>
        <request index="19" response="00000100000010000001" foes="00000100000010000001" cont="1"/>
    </junction>
    <junction id="1/2" type="priority" x="320.00" y="620.00" incLanes="top1to1/2_0 top1to1/2_1 top1to1/2_2 1/1to1/2_0 1/1to1/2_1 1/1to1/2_2" intLanes=":1/2_0_0 :1/2_0_1 :1/2_0_2 :1/2_8_0 :1/2_4_0 :1/2_4_1 :1/2_4_2 :1/2_9_0" shape="310.15,620.00 329.85,620.00 310.15,620.00">
        <request index="0" response="00000000" foes="10000000" cont="0"/>
        <request index="1" response="00000000" foes="10000000" cont="0"/>
        <request index="2" response="00000000" foes="10000000" cont="0"/>
        <request index="3" response="01110000" foes="01110000" cont="1"/>
        <request index="4" response="00000000" foes="00001000" cont="0"/>
        <request index="5" response="00000000" foes="00001000" cont="0"/>
        <request index="6" response="00000000" foes="00001000" cont="0"/>
        <request index="7" response="00000111" foes="00000111" cont="1"/>
    </junction>
    <junction id="2/1" type="priority" x="620.00" y="320.00" incLanes="right1to2/1_0 right1to2/1_1 right1to2/1_2 1/1to2/1_0 1/1to2/1_1 1/1to2/1_2" intLanes=":2/1_0_0 :2/1_0_1 :2/1_0_2 :2/1_8_0 :2/1_4_0 :2/1_4_1 :2/1_4_2 :2/1_9_0" shape="620.00,329.85 620.00,310.15 620.00,329.85">
        <request index="0" response="00000000" foes="10000000" cont="0"/>
        <request index="1" response="00000000" foes="10000000" cont="0"/>
        <request index="2" response="00000000" foes="10000000" cont="0"/>
        <request index="3" response="01110000" foes="01110000" cont="1"/>
        <request index="4" response="00000000" foes="00001000" cont="0"/>
        <request index="5" response="00000000" foes="00001000" cont="0"/>
        <request index="6" response="00000000" foes="00001000" cont="0"/>
        <request index="7" response="00000111" foes="00000111" cont="1"/>
    </junction>
    <junction id="bottom1" type="priority" x="320.00" y="0.00" incLanes="1/0tobottom1_0 1/0tobottom1_1 1/0tobottom1_2" intLanes=":bottom1_0_0" shape="320.05,0.00 329.85,0.00 310.15,0.00 319.95,0.00">
        <request index="0" response="0" foes="0" cont="0"/>
    </junction>
    <junction id="left1" type="priority" x="0.00" y="320.00" incLanes="0/1toleft1_0 0/1toleft1_1 0/1toleft1_2" intLanes=":left1_0_0" shape="0.00,319.95 0.00,310.15 0.00,329.85 0.00,320.05">
        <request index="0" response="0" foes="0" cont="0"/>
    </junction>
    <junction id="right1" type="priority" x="640.00" y="320.00" incLanes="2/1toright1_0 2/1toright1_1 2/1toright1_2" intLanes=":right1_0_0" shape="640.00,320.05 640.00,329.85 640.00,310.15 640.00,319.95">
        <request index="0" response="0" foes="0" cont="0"/>
    </junction>
    <junction id="top1" type="priority" x="320.00" y="640.00" incLanes="1/2totop1_0 1/2totop1_1 1/2totop1_2" intLanes=":top1_0_0" shape="319.95,640.00 310.15,640.00 329.85,640.00 320.05,640.00">
        <request index="0" response="0" foes="0" cont="0"/>
    </junction>

    <junction id=":0/1_8_0" type="internal" x="18.35" y="320.00" incLanes=":0/1_3_0 left1to0/1_0 left1to0/1_1 left1to0/1_2" intLanes=":0/1_4_0 :0/1_4_1 :0/1_4_2"/>
    <junction id=":0/1_9_0" type="internal" x="21.65" y="320.00" incLanes=":0/1_7_0 1/1to0/1_0 1/1to0/1_1 1/1to0/1_2" intLanes=":0/1_0_0 :0/1_0_1 :0/1_0_2"/>
    <junction id=":1/0_8_0" type="internal" x="320.00" y="18.35" incLanes=":1/0_3_0 bottom1to1/0_0 bottom1to1/0_1 bottom1to1/0_2" intLanes=":1/0_4_0 :1/0_4_1 :1/0_4_2"/>
    <junction id=":1/0_9_0" type="internal" x="320.00" y="21.65" incLanes=":1/0_7_0 1/1to1/0_0 1/1to1/0_1 1/1to1/0_2" intLanes=":1/0_0_0 :1/0_0_1 :1/0_0_2"/>
    <junction id=":1/1_20_0" type="internal" x="320.05" y="324.18" incLanes=":1/1_4_0 1/0to1/1_0 1/0to1/1_1 1/0to1/1_2" intLanes=":1/1_7_0 :1/1_8_0 :1/1_9_0 :1/1_10_0 :1/1_11_0 :1/1_11_1 :1/1_11_2 :1/1_17_0 :1/1_18_0"/>
    <junction id=":1/1_21_0" type="internal" x="320.00" y="329.70" incLanes=":1/1_5_0 0/1to1/1_2 1/0to1/1_0 1/0to1/1_1 1/0to1/1_2 2/1to1/1_0" intLanes=":1/1_6_0 :1/1_11_0 :1/1_11_1 :1/1_11_2 :1/1_18_0"/>
    <junction id=":1/1_22_0" type="internal" x="320.55" y="316.65" incLanes=":1/1_8_0 0/1to1/1_0 0/1to1/1_1" intLanes=":1/1_1_0 :1/1_1_1 :1/1_1_2 :1/1_4_0 :1/1_11_0 :1/1_11_1 :1/1_11_2 :1/1_14_0 :1/1_15_0 :1/1_16_0 :1/1_17_0"/>
    <junction id=":1/1_23_0" type="internal" x="329.70" y="320.00" incLanes=":1/1_9_0 0/1to1/1_1 1/0to1/1_0 1/2to1/1_2" intLanes=":1/1_4_0 :1/1_10_0 :1/1_17_0"/>
    <junction id=":1/1_24_0" type="internal" x="319.95" y="315.82" incLanes=":1/1_14_0 1/2to1/1_0 1/2to1/1_1 1/2to1/1_2" intLanes=":1/1_0_0 :1/1_1_0 :1/1_1_1 :1/1_1_2 :1/1_7_0 :1/1_8_0 :1/1_17_0 :1/1_18_0 :1/1_19_0"/>
    <junction id=":1/1_25_0" type="internal" x="320.00" y="310.30" incLanes=":1/1_15_0 0/1to1/1_0 1/2to1/1_0 1/2to1/1_1 1/2to1/1_2 2/1to1/1_2" intLanes=":1/1_1_0 :1/1_1_1 :1/1_1_2 :1/1_8_0 :1/1_16_0"/>
    <junction id=":1/1_26_0" type="internal" x="319.45" y="323.35" incLanes=":1/1_18_0 2/1to1/1_0 2/1to1/1_1" intLanes=":1/1_1_0 :1/1_1_1 :1/1_1_2 :1/1_4_0 :1/1_5_0 :1/1_6_0 :1/1_7_0 :1/1_11_0 :1/1_11_1 :1/1_11_2 :1/1_14_0"/>
    <junction id=":1/1_27_0" type="internal" x="310.30" y="320.00" incLanes=":1/1_19_0 1/0to1/1_2 1/2to1/1_0 2/1to1/1_1" intLanes=":1/1_0_0 :1/1_7_0 :1/1_14_0"/>
    <junction id=":1/2_8_0" type="internal" x="320.00" y="618.35" incLanes=":1/2_3_0 1/1to1/2_0 1/1to1/2_1 1/1to1/2_2" intLanes=":1/2_4_0 :1/2_4_1 :1/2_4_2"/>
    <junction id=":1/2_9_0" type="internal" x="320.00" y="621.65" incLanes=":1/2_7_0 top1to1/2_0 top1to1/2_1 top1to1/2_2" intLanes=":1/2_0_0 :1/2_0_1 :1/2_0_2"/>
    <junction id=":2/1_8_0" type="internal" x="618.35" y="320.00" incLanes=":2/1_3_0 1/1to2/1_0 1/1to2/1_1 1/1to2/1_2" intLanes=":2/1_4_0 :2/1_4_1 :2/1_4_2"/>
    <junction id=":2/1_9_0" type="internal" x="621.65" y="320.00" incLanes=":2/1_7_0 right1to2/1_0 right1to2/1_1 right1to2/1_2" intLanes=":2/1_0_0 :2/1_0_1 :2/1_0_2"/>

    <connection from="0/1to1/1" to="1/1to1/0" fromLane="0" toLane="0" via=":1/1_16_0" tl="1/1" linkIndex="16" dir="r" state="o"/>
    <connection from="0/1to1/1" to="1/1to2/1" fromLane="1" toLane="1" via=":1/1_17_0" tl="1/1" linkIndex="17" dir="s" state="o"/>
    <connection from="0/1to1/1" to="1/1to1/2" fromLane="2" toLane="2" via=":1/1_18_0" tl="1/1" linkIndex="18" dir="l" state="o"/>
    <connection from="0/1to1/1" to="1/1to0/1" fromLane="2" toLane="2" via=":1/1_19_0" tl="1/1" linkIndex="19" dir="t" state="o"/>
    <connection from="0/1toleft1" to="left1to0/1" fromLane="2" toLane="2" via=":left1_0_0" dir="t" state="M"/>
    <connection from="1/0to1/1" to="1/1to2/1" fromLane="0" toLane="0" via=":1/1_10_0" tl="1/1" linkIndex="10" dir="r" state="o"/>