<?xml version="1.0" encoding="iso-8859-1"?>
<configuration xmlns:xsi="http://www.w3.org/2001/XMLSchema-instance" xsi:noNamespaceSchemaLocation="http://sumo.sf.net/xsd/sumoConfiguration.xsd">
	<input>
		<net-file value="expressway.net.xml" />
		<route-files value="expressway.rou.50.twoway.xml"/>
		<additional-files value="expressway.poly.xml"/>
	</input>
	<time>
		<begin value="0"/>
		<end value="3600"/>
		<step-length value="0.1"/>
	</time>
	<report>
		<no-step-log value="true"/>
	</report>
	<gui_only>
		<start value="true"/>
	</gui_only>
</configuration>
