<?xml version="1.0" encoding="UTF-8"?>

<!-- generated on Tue Feb 24 22:25:27 2015 by SUMO netgenerate Version 0.22.0D
<?xml version="1.0" encoding="UTF-8"?>

<configuration xmlns:xsi="http://www.w3.org/2001/XMLSchema-instance" xsi:noNamespaceSchemaLocation="http://sumo.dlr.de/xsd/netgenerateConfiguration.xsd">

    <grid_network>
        <grid value="true"/>
        <grid.number value="7"/>
        <grid.length value="200"/>
    </grid_network>

    <output>
        <output-file value="net.net.xml"/>
    </output>

    <tls_building>
        <tls.guess value="true"/>
    </tls_building>

    <processing>
        <no-turnarounds value="true"/>
    </processing>

    <building_defaults>
        <default.lanenumber value="3"/>
        <default.speed value="22.22"/>
    </building_defaults>

</configuration>
-->

<net version="0.13" xmlns:xsi="http://www.w3.org/2001/XMLSchema-instance" xsi:noNamespaceSchemaLocation="http://sumo.dlr.de/xsd/net_file.xsd">

    <location netOffset="0.00,0.00" convBoundary="0.00,0.00,1200.00,1200.00" origBoundary="0.00,0.00,1200.00,1200.00" projParameter="!"/>

    <edge id=":0/0_0" function="internal">
        <lane id=":0/0_0_0" index="0" speed="22.22" length="23.87" shape="-8.25,9.85 -7.12,1.93 -3.73,-3.73 1.93,-7.12 9.85,-8.25"/>
        <lane id=":0/0_0_1" index="1" speed="22.22" length="23.87" shape="-4.95,9.85 -4.03,3.38 -1.25,-1.25 3.37,-4.02 9.85,-4.95"/>
        <lane id=":0/0_0_2" index="2" speed="22.22" length="23.87" shape="-1.65,9.85 -0.93,4.82 1.22,1.22 4.82,-0.93 9.85,-1.65"/>
    </edge>
    <edge id=":0/0_3" function="internal">
        <lane id=":0/0_3_0" index="0" speed="22.22" length="7.90" shape="9.85,8.25 9.15,8.35 8.65,8.65 8.35,9.15 8.25,9.85"/>
        <lane id=":0/0_3_1" index="1" speed="22.22" length="7.90" shape="9.85,4.95 7.71,5.26 6.17,6.17 5.26,7.71 4.95,9.85"/>
        <lane id=":0/0_3_2" index="2" speed="22.22" length="7.90" shape="9.85,1.65 6.26,2.16 3.70,3.70 2.16,6.26 1.65,9.85"/>
    </edge>
    <edge id=":0/1_0" function="internal">
        <lane id=":0/1_0_0" index="0" speed="22.22" length="22.70" shape="-8.25,211.35 -8.25,204.61 -8.25,200.00 -8.25,195.39 -8.25,188.65"/>
        <lane id=":0/1_0_1" index="1" speed="22.22" length="22.70" shape="-4.95,211.35 -4.95,204.61 -4.95,200.00 -4.95,195.39 -4.95,188.65"/>
        <lane id=":0/1_0_2" index="2" speed="22.22" length="22.70" shape="-1.65,211.35 -1.65,204.61 -1.65,200.00 -1.65,195.39 -1.65,188.65"/>
    </edge>
    <edge id=":0/1_3" function="internal">
        <lane id=":0/1_3_0" index="0" speed="22.22" length="11.65" shape="-1.65,211.35 -0.84,204.22 1.60,199.12"/>
        <lane id=":0/1_3_1" index="1" speed="22.22" length="11.65" shape="-1.65,211.35 -0.84,205.66 1.60,201.60"/>
    </edge>
    <edge id=":0/1_12" function="internal">
        <lane id=":0/1_12_0" index="0" speed="22.22" length="10.86" shape="1.60,199.12 5.66,196.07 11.35,195.05"/>
    </edge>
    <edge id=":0/1_13" function="internal">
        <lane id=":0/1_13_0" index="0" speed="22.22" length="10.48" shape="1.60,201.60 5.66,199.16 11.35,198.35"/>
    </edge>
    <edge id=":0/1_5" function="internal">
        <lane id=":0/1_5_0" index="0" speed="22.22" length="5.00" shape="11.35,208.25 9.99,208.44 9.03,209.03 8.44,209.99 8.25,211.35"/>
    </edge>
    <edge id=":0/1_6" function="internal">
        <lane id=":0/1_6_0" index="0" speed="22.22" length="23.63" shape="11.35,204.95 4.22,203.93 -0.88,200.87 -3.93,195.78 -4.95,188.65"/>
        <lane id=":0/1_6_1" index="1" speed="22.22" length="23.63" shape="11.35,201.65 5.66,200.84 1.60,198.40 -0.84,194.34 -1.65,188.65"/>
    </edge>
    <edge id=":0/1_8" function="internal">
        <lane id=":0/1_8_0" index="0" speed="22.22" length="5.00" shape="8.25,188.65 8.44,190.01 9.02,190.98 9.99,191.56 11.35,191.75"/>
    </edge>
    <edge id=":0/1_9" function="internal">
        <lane id=":0/1_9_0" index="0" speed="22.22" length="22.70" shape="8.25,188.65 8.25,195.39 8.25,200.00 8.25,204.61 8.25,211.35"/>
        <lane id=":0/1_9_1" index="1" speed="22.22" length="22.70" shape="4.95,188.65 4.95,195.39 4.95,200.00 4.95,204.61 4.95,211.35"/>
        <lane id=":0/1_9_2" index="2" speed="22.22" length="22.70" shape="1.65,188.65 1.65,195.39 1.65,200.00 1.65,204.61 1.65,211.35"/>
    </edge>
    <edge id=":0/2_0" function="internal">
        <lane id=":0/2_0_0" index="0" speed="22.22" length="22.70" shape="-8.25,411.35 -8.25,404.61 -8.25,400.00 -8.25,395.39 -8.25,388.65"/>
        <lane id=":0/2_0_1" index="1" speed="22.22" length="22.70" shape="-4.95,411.35 -4.95,404.61 -4.95,400.00 -4.95,395.39 -4.95,388.65"/>
        <lane id=":0/2_0_2" index="2" speed="22.22" length="22.70" shape="-1.65,411.35 -1.65,404.61 -1.65,400.00 -1.65,395.39 -1.65,388.65"/>
    </edge>
    <edge id=":0/2_3" function="internal">
        <lane id=":0/2_3_0" index="0" speed="22.22" length="11.65" shape="-1.65,411.35 -0.84,404.22 1.60,399.12"/>
        <lane id=":0/2_3_1" index="1" speed="22.22" length="11.65" shape="-1.65,411.35 -0.84,405.66 1.60,401.60"/>
    </edge>
    <edge id=":0/2_12" function="internal">
        <lane id=":0/2_12_0" index="0" speed="22.22" length="10.86" shape="1.60,399.12 5.66,396.07 11.35,395.05"/>
    </edge>
    <edge id=":0/2_13" function="internal">
        <lane id=":0/2_13_0" index="0" speed="22.22" length="10.48" shape="1.60,401.60 5.66,399.16 11.35,398.35"/>
    </edge>
    <edge id=":0/2_5" function="internal">
        <lane id=":0/2_5_0" index="0" speed="22.22" length="5.00" shape="11.35,408.25 9.99,408.44 9.03,409.02 8.44,409.99 8.25,411.35"/>
    </edge>
    <edge id=":0/2_6" function="internal">
        <lane id=":0/2_6_0" index="0" speed="22.22" length="23.63" shape="11.35,404.95 4.22,403.93 -0.87,400.88 -3.93,395.78 -4.95,388.65"/>
        <lane id=":0/2_6_1" index="1" speed="22.22" length="23.63" shape="11.35,401.65 5.66,400.84 1.60,398.40 -0.84,394.34 -1.65,388.65"/>
    </edge>
    <edge id=":0/2_8" function="internal">
        <lane id=":0/2_8_0" index="0" speed="22.22" length="5.00" shape="8.25,388.65 8.44,390.01 9.02,390.98 9.99,391.56 11.35,391.75"/>
    </edge>
    <edge id=":0/2_9" function="internal">
        <lane id=":0/2_9_0" index="0" speed="22.22" length="22.70" shape="8.25,388.65 8.25,395.39 8.25,400.00 8.25,404.61 8.25,411.35"/>
        <lane id=":0/2_9_1" index="1" speed="22.22" length="22.70" shape="4.95,388.65 4.95,395.39 4.95,400.00 4.95,404.61 4.95,411.35"/>
        <lane id=":0/2_9_2" index="2" speed="22.22" length="22.70" shape="1.65,388.65 1.65,395.39 1.65,400.00 1.65,404.61 1.65,411.35"/>
    </edge>
    <edge id=":0/3_0" function="internal">
        <lane id=":0/3_0_0" index="0" speed="22.22" length="22.70" shape="-8.25,611.35 -8.25,604.61 -8.25,600.00 -8.25,595.39 -8.25,588.65"/>
        <lane id=":0/3_0_1" index="1" speed="22.22" length="22.70" shape="-4.95,611.35 -4.95,604.61 -4.95,600.00 -4.95,595.39 -4.95,588.65"/>
        <lane id=":0/3_0_2" index="2" speed="22.22" length="22.70" shape="-1.65,611.35 -1.65,604.61 -1.65,600.00 -1.65,595.39 -1.65,588.65"/>
    </edge>
    <edge id=":0/3_3" function="internal">
        <lane id=":0/3_3_0" index="0" speed="22.22" length="11.65" shape="-1.65,611.35 -0.84,604.22 1.60,599.12"/>
        <lane id=":0/3_3_1" index="1" speed="22.22" length="11.65" shape="-1.65,611.35 -0.84,605.66 1.60,601.60"/>
    </edge>
    <edge id=":0/3_12" function="internal">
        <lane id=":0/3_12_0" index="0" speed="22.22" length="10.86" shape="1.60,599.12 5.66,596.07 11.35,595.05"/>
    </edge>
    <edge id=":0/3_13" function="internal">
        <lane id=":0/3_13_0" index="0" speed="22.22" length="10.48" shape="1.60,601.60 5.66,599.16 11.35,598.35"/>
    </edge>
    <edge id=":0/3_5" function="internal">
        <lane id=":0/3_5_0" index="0" speed="22.22" length="5.00" shape="11.35,608.25 9.99,608.44 9.03,609.02 8.44,609.99 8.25,611.35"/>
    </edge>
    <edge id=":0/3_6" function="internal">
        <lane id=":0/3_6_0" index="0" speed="22.22" length="23.63" shape="11.35,604.95 4.22,603.93 -0.87,600.88 -3.93,595.78 -4.95,588.65"/>
        <lane id=":0/3_6_1" index="1" speed="22.22" length="23.63" shape="11.35,601.65 5.66,600.84 1.60,598.40 -0.84,594.34 -1.65,588.65"/>
    </edge>
    <edge id=":0/3_8" function="internal">
        <lane id=":0/3_8_0" index="0" speed="22.22" length="5.00" shape="8.25,588.65 8.44,590.01 9.02,590.98 9.99,591.56 11.35,591.75"/>
    </edge>
    <edge id=":0/3_9" function="internal">
        <lane id=":0/3_9_0" index="0" speed="22.22" length="22.70" shape="8.25,588.65 8.25,595.39 8.25,600.00 8.25,604.61 8.25,611.35"/>
        <lane id=":0/3_9_1" index="1" speed="22.22" length="22.70" shape="4.95,588.65 4.95,595.39 4.95,600.00 4.95,604.61 4.95,611.35"/>
        <lane id=":0/3_9_2" index="2" speed="22.22" length="22.70" shape="1.65,588.65 1.65,595.39 1.65,600.00 1.65,604.61 1.65,611.35"/>
    </edge>
    <edge id=":0/4_0" function="internal">
        <lane id=":0/4_0_0" index="0" speed="22.22" length="22.70" shape="-8.25,811.35 -8.25,804.61 -8.25,800.00 -8.25,795.39 -8.25,788.65"/>
        <lane id=":0/4_0_1" index="1" speed="22.22" length="22.70" shape="-4.95,811.35 -4.95,804.61 -4.95,800.00 -4.95,795.39 -4.95,788.65"/>
        <lane id=":0/4_0_2" index="2" speed="22.22" length="22.70" shape="-1.65,811.35 -1.65,804.61 -1.65,800.00 -1.65,795.39 -1.65,788.65"/>
    </edge>
    <edge id=":0/4_3" function="internal">
        <lane id=":0/4_3_0" index="0" speed="22.22" length="11.65" shape="-1.65,811.35 -0.84,804.22 1.60,799.12"/>
        <lane id=":0/4_3_1" index="1" speed="22.22" length="11.65" shape="-1.65,811.35 -0.84,805.66 1.60,801.60"/>
    </edge>
    <edge id=":0/4_12" function="internal">
        <lane id=":0/4_12_0" index="0" speed="22.22" length="10.86" shape="1.60,799.12 5.66,796.07 11.35,795.05"/>
    </edge>
    <edge id=":0/4_13" function="internal">
        <lane id=":0/4_13_0" index="0" speed="22.22" length="10.48" shape="1.60,801.60 5.66,799.16 11.35,798.35"/>
    </edge>
    <edge id=":0/4_5" function="internal">
        <lane id=":0/4_5_0" index="0" speed="22.22" length="5.00" shape="11.35,808.25 9.99,808.44 9.03,809.02 8.44,809.99 8.25,811.35"/>
    </edge>
    <edge id=":0/4_6" function="internal">
        <lane id=":0/4_6_0" index="0" speed="22.22" length="23.63" shape="11.35,804.95 4.22,803.93 -0.87,800.88 -3.93,795.78 -4.95,788.65"/>
        <lane id=":0/4_6_1" index="1" speed="22.22" length="23.63" shape="11.35,801.65 5.66,800.84 1.60,798.40 -0.84,794.34 -1.65,788.65"/>
    </edge>
    <edge id=":0/4_8" function="internal">
        <lane id=":0/4_8_0" index="0" speed="22.22" length="5.00" shape="8.25,788.65 8.44,790.01 9.02,790.98 9.99,791.56 11.35,791.75"/>
    </edge>
    <edge id=":0/4_9" function="internal">
        <lane id=":0/4_9_0" index="0" speed="22.22" length="22.70" shape="8.25,788.65 8.25,795.39 8.25,800.00 8.25,804.61 8.25,811.35"/>
        <lane id=":0/4_9_1" index="1" speed="22.22" length="22.70" shape="4.95,788.65 4.95,795.39 4.95,800.00 4.95,804.61 4.95,811.35"/>
        <lane id=":0/4_9_2" index="2" speed="22.22" length="22.70" shape="1.65,788.65 1.65,795.39 1.65,800.00 1.65,804.61 1.65,811.35"/>
    </edge>
    <edge id=":0/5_0" function="internal">
        <lane id=":0/5_0_0" index="0" speed="22.22" length="22.70" shape="-8.25,1011.35 -8.25,1004.61 -8.25,1000.00 -8.25,995.39 -8.25,988.65"/>
        <lane id=":0/5_0_1" index="1" speed="22.22" length="22.70" shape="-4.95,1011.35 -4.95,1004.61 -4.95,1000.00 -4.95,995.39 -4.95,988.65"/>
        <lane id=":0/5_0_2" index="2" speed="22.22" length="22.70" shape="-1.65,1011.35 -1.65,1004.61 -1.65,1000.00 -1.65,995.39 -1.65,988.65"/>
    </edge>
    <edge id=":0/5_3" function="internal">
        <lane id=":0/5_3_0" index="0" speed="22.22" length="11.65" shape="-1.65,1011.35 -0.84,1004.22 1.60,999.12"/>
        <lane id=":0/5_3_1" index="1" speed="22.22" length="11.65" shape="-1.65,1011.35 -0.84,1005.66 1.60,1001.60"/>
    </edge>
    <edge id=":0/5_12" function="internal">
        <lane id=":0/5_12_0" index="0" speed="22.22" length="10.86" shape="1.60,999.12 5.66,996.07 11.35,995.05"/>
    </edge>
    <edge id=":0/5_13" function="internal">
        <lane id=":0/5_13_0" index="0" speed="22.22" length="10.48" shape="1.60,1001.60 5.66,999.16 11.35,998.35"/>
    </edge>
    <edge id=":0/5_5" function="internal">
        <lane id=":0/5_5_0" index="0" speed="22.22" length="5.00" shape="11.35,1008.25 9.99,1008.44 9.02,1009.02 8.44,1009.99 8.25,1011.35"/>
    </edge>
    <edge id=":0/5_6" function="internal">
        <lane id=":0/5_6_0" index="0" speed="22.22" length="23.63" shape="11.35,1004.95 4.22,1003.93 -0.87,1000.88 -3.93,995.78 -4.95,988.65"/>
        <lane id=":0/5_6_1" index="1" speed="22.22" length="23.63" shape="11.35,1001.65 5.66,1000.84 1.60,998.40 -0.84,994.34 -1.65,988.65"/>
    </edge>
    <edge id=":0/5_8" function="internal">
        <lane id=":0/5_8_0" index="0" speed="22.22" length="5.00" shape="8.25,988.65 8.44,990.01 9.02,990.98 9.99,991.56 11.35,991.75"/>
    </edge>
    <edge id=":0/5_9" function="internal">
        <lane id=":0/5_9_0" index="0" speed="22.22" length="22.70" shape="8.25,988.65 8.25,995.39 8.25,1000.00 8.25,1004.61 8.25,1011.35"/>
        <lane id=":0/5_9_1" index="1" speed="22.22" length="22.70" shape="4.95,988.65 4.95,995.39 4.95,1000.00 4.95,1004.61 4.95,1011.35"/>
        <lane id=":0/5_9_2" index="2" speed="22.22" length="22.70" shape="1.65,988.65 1.65,995.39 1.65,1000.00 1.65,1004.61 1.65,1011.35"/>
    </edge>
    <edge id=":0/6_0" function="internal">
        <lane id=":0/6_0_0" index="0" speed="22.22" length="23.87" shape="9.85,1208.25 1.93,1207.12 -3.73,1203.72 -7.12,1198.07 -8.25,1190.15"/>
        <lane id=":0/6_0_1" index="1" speed="22.22" length="23.87" shape="9.85,1204.95 3.37,1204.03 -1.25,1201.25 -4.03,1196.62 -4.95,1190.15"/>
        <lane id=":0/6_0_2" index="2" speed="22.22" length="23.87" shape="9.85,1201.65 4.82,1200.93 1.22,1198.78 -0.93,1195.18 -1.65,1190.15"/>
    </edge>
    <edge id=":0/6_3" function="internal">
        <lane id=":0/6_3_0" index="0" speed="22.22" length="7.90" shape="8.25,1190.15 8.35,1190.85 8.65,1191.35 9.15,1191.65 9.85,1191.75"/>
        <lane id=":0/6_3_1" index="1" speed="22.22" length="7.90" shape="4.95,1190.15 5.26,1192.29 6.17,1193.83 7.71,1194.74 9.85,1195.05"/>
        <lane id=":0/6_3_2" index="2" speed="22.22" length="7.90" shape="1.65,1190.15 2.16,1193.74 3.70,1196.30 6.26,1197.84 9.85,1198.35"/>
    </edge>
    <edge id=":1/0_0" function="internal">
        <lane id=":1/0_0_0" index="0" speed="22.22" length="5.00" shape="191.75,11.35 191.56,9.99 190.97,9.02 190.01,8.44 188.65,8.25"/>
    </edge>
    <edge id=":1/0_1" function="internal">
        <lane id=":1/0_1_0" index="0" speed="22.22" length="23.63" shape="195.05,11.35 196.07,4.22 199.13,-0.87 204.22,-3.93 211.35,-4.95"/>
        <lane id=":1/0_1_1" index="1" speed="22.22" length="23.63" shape="198.35,11.35 199.16,5.66 201.60,1.60 205.66,-0.84 211.35,-1.65"/>
    </edge>
    <edge id=":1/0_3" function="internal">
        <lane id=":1/0_3_0" index="0" speed="22.22" length="5.00" shape="211.35,8.25 209.99,8.44 209.03,9.02 208.44,9.99 208.25,11.35"/>
    </edge>
    <edge id=":1/0_4" function="internal">
        <lane id=":1/0_4_0" index="0" speed="22.22" length="22.70" shape="211.35,8.25 204.61,8.25 200.00,8.25 195.39,8.25 188.65,8.25"/>
        <lane id=":1/0_4_1" index="1" speed="22.22" length="22.70" shape="211.35,4.95 204.61,4.95 200.00,4.95 195.39,4.95 188.65,4.95"/>
        <lane id=":1/0_4_2" index="2" speed="22.22" length="22.70" shape="211.35,1.65 204.61,1.65 200.00,1.65 195.39,1.65 188.65,1.65"/>
    </edge>
    <edge id=":1/0_7" function="internal">
        <lane id=":1/0_7_0" index="0" speed="22.22" length="22.70" shape="188.65,-8.25 195.39,-8.25 200.00,-8.25 204.61,-8.25 211.35,-8.25"/>
        <lane id=":1/0_7_1" index="1" speed="22.22" length="22.70" shape="188.65,-4.95 195.39,-4.95 200.00,-4.95 204.61,-4.95 211.35,-4.95"/>
        <lane id=":1/0_7_2" index="2" speed="22.22" length="22.70" shape="188.65,-1.65 195.39,-1.65 200.00,-1.65 204.61,-1.65 211.35,-1.65"/>
    </edge>
    <edge id=":1/0_10" function="internal">
        <lane id=":1/0_10_0" index="0" speed="22.22" length="11.65" shape="188.65,-1.65 195.78,-0.84 200.88,1.60"/>
        <lane id=":1/0_10_1" index="1" speed="22.22" length="11.65" shape="188.65,-1.65 194.34,-0.84 198.40,1.60"/>
    </edge>
    <edge id=":1/0_12" function="internal">
        <lane id=":1/0_12_0" index="0" speed="22.22" length="10.86" shape="200.88,1.60 203.93,5.66 204.95,11.35"/>
    </edge>
    <edge id=":1/0_13" function="internal">
        <lane id=":1/0_13_0" index="0" speed="22.22" length="10.48" shape="198.40,1.60 200.84,5.66 201.65,11.35"/>
    </edge>
    <edge id=":1/1_0" function="internal">
        <lane id=":1/1_0_0" index="0" speed="22.22" length="5.00" shape="191.75,211.35 191.56,209.99 190.97,209.03 190.01,208.44 188.65,208.25"/>
    </edge>
    <edge id=":1/1_1" function="internal">
        <lane id=":1/1_1_0" index="0" speed="22.22" length="22.70" shape="191.75,211.35 191.75,204.61 191.75,200.00 191.75,195.39 191.75,188.65"/>
        <lane id=":1/1_1_1" index="1" speed="22.22" length="22.70" shape="195.05,211.35 195.05,204.61 195.05,200.00 195.05,195.39 195.05,188.65"/>
        <lane id=":1/1_1_2" index="2" speed="22.22" length="22.70" shape="198.35,211.35 198.35,204.61 198.35,200.00 198.35,195.39 198.35,188.65"/>
    </edge>
    <edge id=":1/1_4" function="internal">
        <lane id=":1/1_4_0" index="0" speed="22.22" length="10.48" shape="198.35,211.35 199.16,205.66 201.60,201.60"/>
    </edge>
    <edge id=":1/1_16" function="internal">
        <lane id=":1/1_16_0" index="0" speed="22.22" length="10.48" shape="201.60,201.60 205.66,199.16 211.35,198.35"/>
    </edge>
    <edge id=":1/1_5" function="internal">
        <lane id=":1/1_5_0" index="0" speed="22.22" length="5.00" shape="211.35,208.25 209.99,208.44 209.03,209.03 208.44,209.99 208.25,211.35"/>
    </edge>
    <edge id=":1/1_6" function="internal">
        <lane id=":1/1_6_0" index="0" speed="22.22" length="22.70" shape="211.35,204.95 204.61,204.95 200.00,204.95 195.39,204.95 188.65,204.95"/>
    </edge>
    <edge id=":1/1_7" function="internal">
        <lane id=":1/1_7_0" index="0" speed="22.22" length="20.97" shape="211.35,201.65 205.66,200.84 201.60,198.40 199.16,194.34 198.35,188.65"/>
    </edge>
    <edge id=":1/1_8" function="internal">
        <lane id=":1/1_8_0" index="0" speed="22.22" length="5.00" shape="208.25,188.65 208.44,190.01 209.03,190.97 209.99,191.56 211.35,191.75"/>
    </edge>
    <edge id=":1/1_9" function="internal">
        <lane id=":1/1_9_0" index="0" speed="22.22" length="22.70" shape="208.25,188.65 208.25,195.39 208.25,200.00 208.25,204.61 208.25,211.35"/>
        <lane id=":1/1_9_1" index="1" speed="22.22" length="22.70" shape="204.95,188.65 204.95,195.39 204.95,200.00 204.95,204.61 204.95,211.35"/>
        <lane id=":1/1_9_2" index="2" speed="22.22" length="22.70" shape="201.65,188.65 201.65,195.39 201.65,200.00 201.65,204.61 201.65,211.35"/>
    </edge>
    <edge id=":1/1_12" function="internal">
        <lane id=":1/1_12_0" index="0" speed="22.22" length="10.48" shape="201.65,188.65 200.84,194.34 198.40,198.40"/>
    </edge>
    <edge id=":1/1_17" function="internal">
        <lane id=":1/1_17_0" index="0" speed="22.22" length="10.48" shape="198.40,198.40 194.34,200.84 188.65,201.65"/>
    </edge>
    <edge id=":1/1_13" function="internal">
        <lane id=":1/1_13_0" index="0" speed="22.22" length="5.00" shape="188.65,191.75 190.01,191.56 190.97,190.97 191.56,190.01 191.75,188.65"/>
    </edge>
    <edge id=":1/1_14" function="internal">
        <lane id=":1/1_14_0" index="0" speed="22.22" length="22.70" shape="188.65,195.05 195.39,195.05 200.00,195.05 204.61,195.05 211.35,195.05"/>
    </edge>
    <edge id=":1/1_15" function="internal">
        <lane id=":1/1_15_0" index="0" speed="22.22" length="20.97" shape="188.65,198.35 194.34,199.16 198.40,201.60 200.84,205.66 201.65,211.35"/>
    </edge>
    <edge id=":1/2_0" function="internal">
        <lane id=":1/2_0_0" index="0" speed="22.22" length="5.00" shape="191.75,411.35 191.56,409.99 190.97,409.02 190.01,408.44 188.65,408.25"/>
    </edge>
    <edge id=":1/2_1" function="internal">
        <lane id=":1/2_1_0" index="0" speed="22.22" length="22.70" shape="191.75,411.35 191.75,404.61 191.75,400.00 191.75,395.39 191.75,388.65"/>
        <lane id=":1/2_1_1" index="1" speed="22.22" length="22.70" shape="195.05,411.35 195.05,404.61 195.05,400.00 195.05,395.39 195.05,388.65"/>
        <lane id=":1/2_1_2" index="2" speed="22.22" length="22.70" shape="198.35,411.35 198.35,404.61 198.35,400.00 198.35,395.39 198.35,388.65"/>
    </edge>
    <edge id=":1/2_4" function="internal">
        <lane id=":1/2_4_0" index="0" speed="22.22" length="10.48" shape="198.35,411.35 199.16,405.66 201.60,401.60"/>
    </edge>
    <edge id=":1/2_16" function="internal">
        <lane id=":1/2_16_0" index="0" speed="22.22" length="10.48" shape="201.60,401.60 205.66,399.16 211.35,398.35"/>
    </edge>
    <edge id=":1/2_5" function="internal">
        <lane id=":1/2_5_0" index="0" speed="22.22" length="5.00" shape="211.35,408.25 209.99,408.44 209.03,409.02 208.44,409.99 208.25,411.35"/>
    </edge>
    <edge id=":1/2_6" function="internal">
        <lane id=":1/2_6_0" index="0" speed="22.22" length="22.70" shape="211.35,404.95 204.61,404.95 200.00,404.95 195.39,404.95 188.65,404.95"/>
    </edge>
    <edge id=":1/2_7" function="internal">
        <lane id=":1/2_7_0" index="0" speed="22.22" length="20.97" shape="211.35,401.65 205.66,400.84 201.60,398.40 199.16,394.34 198.35,388.65"/>
    </edge>
    <edge id=":1/2_8" function="internal">
        <lane id=":1/2_8_0" index="0" speed="22.22" length="5.00" shape="208.25,388.65 208.44,390.01 209.03,390.98 209.99,391.56 211.35,391.75"/>
    </edge>
    <edge id=":1/2_9" function="internal">
        <lane id=":1/2_9_0" index="0" speed="22.22" length="22.70" shape="208.25,388.65 208.25,395.39 208.25,400.00 208.25,404.61 208.25,411.35"/>
        <lane id=":1/2_9_1" index="1" speed="22.22" length="22.70" shape="204.95,388.65 204.95,395.39 204.95,400.00 204.95,404.61 204.95,411.35"/>
        <lane id=":1/2_9_2" index="2" speed="22.22" length="22.70" shape="201.65,388.65 201.65,395.39 201.65,400.00 201.65,404.61 201.65,411.35"/>
    </edge>
    <edge id=":1/2_12" function="internal">
        <lane id=":1/2_12_0" index="0" speed="22.22" length="10.48" shape="201.65,388.65 200.84,394.34 198.40,398.40"/>
    </edge>
    <edge id=":1/2_17" function="internal">
        <lane id=":1/2_17_0" index="0" speed="22.22" length="10.48" shape="198.40,398.40 194.34,400.84 188.65,401.65"/>
    </edge>
    <edge id=":1/2_13" function="internal">
        <lane id=":1/2_13_0" index="0" speed="22.22" length="5.00" shape="188.65,391.75 190.01,391.56 190.97,390.98 191.56,390.01 191.75,388.65"/>
    </edge>
    <edge id=":1/2_14" function="internal">
        <lane id=":1/2_14_0" index="0" speed="22.22" length="22.70" shape="188.65,395.05 195.39,395.05 200.00,395.05 204.61,395.05 211.35,395.05"/>
    </edge>
    <edge id=":1/2_15" function="internal">
        <lane id=":1/2_15_0" index="0" speed="22.22" length="20.97" shape="188.65,398.35 194.34,399.16 198.40,401.60 200.84,405.66 201.65,411.35"/>
    </edge>
    <edge id=":1/3_0" function="internal">
        <lane id=":1/3_0_0" index="0" speed="22.22" length="5.00" shape="191.75,611.35 191.56,609.99 190.97,609.02 190.01,608.44 188.65,608.25"/>
    </edge>
    <edge id=":1/3_1" function="internal">
        <lane id=":1/3_1_0" index="0" speed="22.22" length="22.70" shape="191.75,611.35 191.75,604.61 191.75,600.00 191.75,595.39 191.75,588.65"/>
        <lane id=":1/3_1_1" index="1" speed="22.22" length="22.70" shape="195.05,611.35 195.05,604.61 195.05,600.00 195.05,595.39 195.05,588.65"/>
        <lane id=":1/3_1_2" index="2" speed="22.22" length="22.70" shape="198.35,611.35 198.35,604.61 198.35,600.00 198.35,595.39 198.35,588.65"/>
    </edge>
    <edge id=":1/3_4" function="internal">
        <lane id=":1/3_4_0" index="0" speed="22.22" length="10.48" shape="198.35,611.35 199.16,605.66 201.60,601.60"/>
    </edge>
    <edge id=":1/3_16" function="internal">
        <lane id=":1/3_16_0" index="0" speed="22.22" length="10.48" shape="201.60,601.60 205.66,599.16 211.35,598.35"/>
    </edge>
    <edge id=":1/3_5" function="internal">
        <lane id=":1/3_5_0" index="0" speed="22.22" length="5.00" shape="211.35,608.25 209.99,608.44 209.03,609.02 208.44,609.99 208.25,611.35"/>
    </edge>
    <edge id=":1/3_6" function="internal">
        <lane id=":1/3_6_0" index="0" speed="22.22" length="22.70" shape="211.35,604.95 204.61,604.95 200.00,604.95 195.39,604.95 188.65,604.95"/>
    </edge>
    <edge id=":1/3_7" function="internal">
        <lane id=":1/3_7_0" index="0" speed="22.22" length="20.97" shape="211.35,601.65 205.66,600.84 201.60,598.40 199.16,594.34 198.35,588.65"/>
    </edge>
    <edge id=":1/3_8" function="internal">
        <lane id=":1/3_8_0" index="0" speed="22.22" length="5.00" shape="208.25,588.65 208.44,590.01 209.03,590.98 209.99,591.56 211.35,591.75"/>
    </edge>
    <edge id=":1/3_9" function="internal">
        <lane id=":1/3_9_0" index="0" speed="22.22" length="22.70" shape="208.25,588.65 208.25,595.39 208.25,600.00 208.25,604.61 208.25,611.35"/>
        <lane id=":1/3_9_1" index="1" speed="22.22" length="22.70" shape="204.95,588.65 204.95,595.39 204.95,600.00 204.95,604.61 204.95,611.35"/>
        <lane id=":1/3_9_2" index="2" speed="22.22" length="22.70" shape="201.65,588.65 201.65,595.39 201.65,600.00 201.65,604.61 201.65,611.35"/>
    </edge>
    <edge id=":1/3_12" function="internal">
        <lane id=":1/3_12_0" index="0" speed="22.22" length="10.48" shape="201.65,588.65 200.84,594.34 198.40,598.40"/>
    </edge>
    <edge id=":1/3_17" function="internal">
        <lane id=":1/3_17_0" index="0" speed="22.22" length="10.48" shape="198.40,598.40 194.34,600.84 188.65,601.65"/>
    </edge>
    <edge id=":1/3_13" function="internal">
        <lane id=":1/3_13_0" index="0" speed="22.22" length="5.00" shape="188.65,591.75 190.01,591.56 190.97,590.98 191.56,590.01 191.75,588.65"/>
    </edge>
    <edge id=":1/3_14" function="internal">
        <lane id=":1/3_14_0" index="0" speed="22.22" length="22.70" shape="188.65,595.05 195.39,595.05 200.00,595.05 204.61,595.05 211.35,595.05"/>
    </edge>
    <edge id=":1/3_15" function="internal">
        <lane id=":1/3_15_0" index="0" speed="22.22" length="20.97" shape="188.65,598.35 194.34,599.16 198.40,601.60 200.84,605.66 201.65,611.35"/>
    </edge>
    <edge id=":1/4_0" function="internal">
        <lane id=":1/4_0_0" index="0" speed="22.22" length="5.00" shape="191.75,811.35 191.56,809.99 190.97,809.02 190.01,808.44 188.65,808.25"/>
    </edge>
    <edge id=":1/4_1" function="internal">
        <lane id=":1/4_1_0" index="0" speed="22.22" length="22.70" shape="191.75,811.35 191.75,804.61 191.75,800.00 191.75,795.39 191.75,788.65"/>
        <lane id=":1/4_1_1" index="1" speed="22.22" length="22.70" shape="195.05,811.35 195.05,804.61 195.05,800.00 195.05,795.39 195.05,788.65"/>
        <lane id=":1/4_1_2" index="2" speed="22.22" length="22.70" shape="198.35,811.35 198.35,804.61 198.35,800.00 198.35,795.39 198.35,788.65"/>
    </edge>
    <edge id=":1/4_4" function="internal">
        <lane id=":1/4_4_0" index="0" speed="22.22" length="10.48" shape="198.35,811.35 199.16,805.66 201.60,801.60"/>
    </edge>
    <edge id=":1/4_16" function="internal">
        <lane id=":1/4_16_0" index="0" speed="22.22" length="10.48" shape="201.60,801.60 205.66,799.16 211.35,798.35"/>
    </edge>
    <edge id=":1/4_5" function="internal">
        <lane id=":1/4_5_0" index="0" speed="22.22" length="5.00" shape="211.35,808.25 209.99,808.44 209.03,809.02 208.44,809.99 208.25,811.35"/>
    </edge>
    <edge id=":1/4_6" function="internal">
        <lane id=":1/4_6_0" index="0" speed="22.22" length="22.70" shape="211.35,804.95 204.61,804.95 200.00,804.95 195.39,804.95 188.65,804.95"/>
    </edge>
    <edge id=":1/4_7" function="internal">
        <lane id=":1/4_7_0" index="0" speed="22.22" length="20.97" shape="211.35,801.65 205.66,800.84 201.60,798.40 199.16,794.34 198.35,788.65"/>
    </edge>
    <edge id=":1/4_8" function="internal">
        <lane id=":1/4_8_0" index="0" speed="22.22" length="5.00" shape="208.25,788.65 208.44,790.01 209.03,790.98 209.99,791.56 211.35,791.75"/>
    </edge>
    <edge id=":1/4_9" function="internal">
        <lane id=":1/4_9_0" index="0" speed="22.22" length="22.70" shape="208.25,788.65 208.25,795.39 208.25,800.00 208.25,804.61 208.25,811.35"/>
        <lane id=":1/4_9_1" index="1" speed="22.22" length="22.70" shape="204.95,788.65 204.95,795.39 204.95,800.00 204.95,804.61 204.95,811.35"/>
        <lane id=":1/4_9_2" index="2" speed="22.22" length="22.70" shape="201.65,788.65 201.65,795.39 201.65,800.00 201.65,804.61 201.65,811.35"/>
    </edge>
    <edge id=":1/4_12" function="internal">
        <lane id=":1/4_12_0" index="0" speed="22.22" length="10.48" shape="201.65,788.65 200.84,794.34 198.40,798.40"/>
    </edge>
    <edge id=":1/4_17" function="internal">
        <lane id=":1/4_17_0" index="0" speed="22.22" length="10.48" shape="198.40,798.40 194.34,800.84 188.65,801.65"/>
    </edge>
    <edge id=":1/4_13" function="internal">
        <lane id=":1/4_13_0" index="0" speed="22.22" length="5.00" shape="188.65,791.75 190.01,791.56 190.97,790.98 191.56,790.01 191.75,788.65"/>
    </edge>
    <edge id=":1/4_14" function="internal">
        <lane id=":1/4_14_0" index="0" speed="22.22" length="22.70" shape="188.65,795.05 195.39,795.05 200.00,795.05 204.61,795.05 211.35,795.05"/>
    </edge>
    <edge id=":1/4_15" function="internal">
        <lane id=":1/4_15_0" index="0" speed="22.22" length="20.97" shape="188.65,798.35 194.34,799.16 198.40,801.60 200.84,805.66 201.65,811.35"/>