<?xml version="1.0" encoding="UTF-8"?>

<!-- generated on Sun Jul 12 17:36:06 2015 by SUMO netgenerate Version 0.22.0D
<?xml version="1.0" encoding="UTF-8"?>

<configuration xmlns:xsi="http://www.w3.org/2001/XMLSchema-instance" xsi:noNamespaceSchemaLocation="http://sumo.dlr.de/xsd/netgenerateConfiguration.xsd">

    <grid_network>
        <grid value="true"/>
        <grid.number value="5"/>
        <grid.length value="100"/>
        <grid.x-number value="7"/>
        <grid.y-number value="2"/>
        <grid.y-length value="10"/>
    </grid_network>

    <output>
        <output-file value="net.net.xml"/>
    </output>

    <tls_building>
        <tls.guess value="true"/>
    </tls_building>

</configuration>
-->

<net version="0.13" xmlns:xsi="http://www.w3.org/2001/XMLSchema-instance" xsi:noNamespaceSchemaLocation="http://sumo.dlr.de/xsd/net_file.xsd">

    <location netOffset="0.00,0.00" convBoundary="0.00,0.00,600.00,10.00" origBoundary="0.00,0.00,600.00,10.00" projParameter="!"/>

    <edge id=":0/0_0" function="internal">
        <lane id=":0/0_0_0" index="0" speed="13.90" length="7.90" shape="-1.65,3.25 -1.34,1.11 -0.43,-0.43 1.11,-1.34 3.25,-1.65"/>
    </edge>
    <edge id=":0/0_1" function="internal">
        <lane id=":0/0_1_0" index="0" speed="13.90" length="2.41" shape="-1.65,3.25 -0.83,2.01 -0.00,1.60"/>
    </edge>
    <edge id=":0/0_4" function="internal">
        <lane id=":0/0_4_0" index="0" speed="13.90" length="2.41" shape="-0.00,1.60 0.82,2.01 1.65,3.25"/>
    </edge>
    <edge id=":0/0_2" function="internal">
        <lane id=":0/0_2_0" index="0" speed="13.90" length="2.58" shape="3.25,1.65 2.55,1.75 2.05,2.05 1.75,2.55 1.65,3.25"/>
    </edge>
    <edge id=":0/0_3" function="internal">
        <lane id=":0/0_3_0" index="0" speed="13.90" length="2.41" shape="3.25,1.65 2.01,0.83 1.60,0.00"/>
    </edge>
    <edge id=":0/0_5" function="internal">
        <lane id=":0/0_5_0" index="0" speed="13.90" length="2.41" shape="1.60,0.00 2.01,-0.82 3.25,-1.65"/>
    </edge>
    <edge id=":0/1_0" function="internal">
        <lane id=":0/1_0_0" index="0" speed="13.90" length="7.90" shape="3.25,11.65 1.11,11.34 -0.43,10.43 -1.34,8.89 -1.65,6.75"/>
    </edge>
    <edge id=":0/1_1" function="internal">
        <lane id=":0/1_1_0" index="0" speed="13.90" length="2.41" shape="3.25,11.65 2.01,10.83 1.60,10.00"/>
    </edge>
    <edge id=":0/1_4" function="internal">
        <lane id=":0/1_4_0" index="0" speed="13.90" length="2.41" shape="1.60,10.00 2.01,9.18 3.25,8.35"/>
    </edge>
    <edge id=":0/1_2" function="internal">
        <lane id=":0/1_2_0" index="0" speed="13.90" length="2.58" shape="1.65,6.75 1.75,7.45 2.05,7.95 2.55,8.25 3.25,8.35"/>
    </edge>
    <edge id=":0/1_3" function="internal">
        <lane id=":0/1_3_0" index="0" speed="13.90" length="2.41" shape="1.65,6.75 0.83,7.99 0.00,8.40"/>
    </edge>
    <edge id=":0/1_5" function="internal">
        <lane id=":0/1_5_0" index="0" speed="13.90" length="2.41" shape="0.00,8.40 -0.82,7.99 -1.65,6.75"/>
    </edge>
    <edge id=":1/0_0" function="internal">
        <lane id=":1/0_0_0" index="0" speed="13.90" length="5.00" shape="98.35,4.75 98.16,3.39 97.57,2.43 96.61,1.84 95.25,1.65"/>
    </edge>
    <edge id=":1/0_1" function="internal">
        <lane id=":1/0_1_0" index="0" speed="13.90" length="3.18" shape="98.35,4.75 98.75,1.95 98.93,1.65"/>
    </edge>
    <edge id=":1/0_2" function="internal">
        <lane id=":1/0_2_0" index="0" speed="13.90" length="2.41" shape="98.35,4.75 99.18,3.51 100.00,3.10"/>
    </edge>
    <edge id=":1/0_9" function="internal">
        <lane id=":1/0_9_0" index="0" speed="13.90" length="7.14" shape="98.93,1.65 99.95,-0.05 101.95,-1.25 104.75,-1.65"/>
    </edge>
    <edge id=":1/0_10" function="internal">
        <lane id=":1/0_10_0" index="0" speed="13.90" length="2.41" shape="100.00,3.10 100.83,3.51 101.65,4.75"/>
    </edge>
    <edge id=":1/0_3" function="internal">
        <lane id=":1/0_3_0" index="0" speed="13.90" length="5.00" shape="104.75,1.65 103.39,1.84 102.43,2.42 101.84,3.39 101.65,4.75"/>
    </edge>
    <edge id=":1/0_4" function="internal">
        <lane id=":1/0_4_0" index="0" speed="13.90" length="9.50" shape="104.75,1.65 95.25,1.65"/>
    </edge>
    <edge id=":1/0_5" function="internal">
        <lane id=":1/0_5_0" index="0" speed="13.90" length="2.41" shape="104.75,1.65 103.51,0.83 103.10,0.00"/>
    </edge>
    <edge id=":1/0_11" function="internal">
        <lane id=":1/0_11_0" index="0" speed="13.90" length="2.41" shape="103.10,0.00 103.51,-0.82 104.75,-1.65"/>
    </edge>
    <edge id=":1/0_6" function="internal">
        <lane id=":1/0_6_0" index="0" speed="13.90" length="9.50" shape="95.25,-1.65 104.75,-1.65"/>
    </edge>
    <edge id=":1/0_7" function="internal">
        <lane id=":1/0_7_0" index="0" speed="13.90" length="7.14" shape="95.25,-1.65 98.05,-1.25 100.05,-0.05 101.07,1.65"/>
    </edge>
    <edge id=":1/0_8" function="internal">
        <lane id=":1/0_8_0" index="0" speed="13.90" length="2.41" shape="95.25,-1.65 96.49,-0.83 96.90,-0.00"/>
    </edge>
    <edge id=":1/0_12" function="internal">
        <lane id=":1/0_12_0" index="0" speed="13.90" length="3.18" shape="101.07,1.65 101.25,1.95 101.65,4.75"/>
    </edge>
    <edge id=":1/0_13" function="internal">
        <lane id=":1/0_13_0" index="0" speed="13.90" length="2.41" shape="96.90,-0.00 96.49,0.82 95.25,1.65"/>
    </edge>
    <edge id=":1/1_0" function="internal">
        <lane id=":1/1_0_0" index="0" speed="13.90" length="9.50" shape="104.75,11.65 95.25,11.65"/>
    </edge>
    <edge id=":1/1_1" function="internal">
        <lane id=":1/1_1_0" index="0" speed="13.90" length="7.14" shape="104.75,11.65 101.95,11.25 99.95,10.05 98.93,8.35"/>
    </edge>
    <edge id=":1/1_2" function="internal">
        <lane id=":1/1_2_0" index="0" speed="13.90" length="2.41" shape="104.75,11.65 103.51,10.83 103.10,10.00"/>
    </edge>
    <edge id=":1/1_9" function="internal">
        <lane id=":1/1_9_0" index="0" speed="13.90" length="3.18" shape="98.93,8.35 98.75,8.05 98.35,5.25"/>
    </edge>
    <edge id=":1/1_10" function="internal">
        <lane id=":1/1_10_0" index="0" speed="13.90" length="2.41" shape="103.10,10.00 103.51,9.18 104.75,8.35"/>
    </edge>
    <edge id=":1/1_3" function="internal">
        <lane id=":1/1_3_0" index="0" speed="13.90" length="5.00" shape="101.65,5.25 101.84,6.61 102.43,7.57 103.39,8.16 104.75,8.35"/>
    </edge>
    <edge id=":1/1_4" function="internal">
        <lane id=":1/1_4_0" index="0" speed="13.90" length="3.18" shape="101.65,5.25 101.25,8.05 101.07,8.35"/>
    </edge>
    <edge id=":1/1_5" function="internal">
        <lane id=":1/1_5_0" index="0" speed="13.90" length="2.41" shape="101.65,5.25 100.82,6.49 100.00,6.90"/>
    </edge>
    <edge id=":1/1_11" function="internal">
        <lane id=":1/1_11_0" index="0" speed="13.90" length="7.14" shape="101.07,8.35 100.05,10.05 98.05,11.25 95.25,11.65"/>
    </edge>
    <edge id=":1/1_12" function="internal">
        <lane id=":1/1_12_0" index="0" speed="13.90" length="2.41" shape="100.00,6.90 99.17,6.49 98.35,5.25"/>
    </edge>
    <edge id=":1/1_6" function="internal">
        <lane id=":1/1_6_0" index="0" speed="13.90" length="5.00" shape="95.25,8.35 96.61,8.16 97.57,7.57 98.16,6.61 98.35,5.25"/>
    </edge>
    <edge id=":1/1_7" function="internal">
        <lane id=":1/1_7_0" index="0" speed="13.90" length="9.50" shape="95.25,8.35 104.75,8.35"/>
    </edge>
    <edge id=":1/1_8" function="internal">
        <lane id=":1/1_8_0" index="0" speed="13.90" length="2.41" shape="95.25,8.35 96.49,9.17 96.90,10.00"/>
    </edge>
    <edge id=":1/1_13" function="internal">
        <lane id=":1/1_13_0" index="0" speed="13.90" length="2.41" shape="96.90,10.00 96.49,10.82 95.25,11.65"/>
    </edge>
    <edge id=":2/0_0" function="internal">
        <lane id=":2/0_0_0" index="0" speed="13.90" length="5.00" shape="198.35,4.75 198.16,3.39 197.57,2.43 196.61,1.84 195.25,1.65"/>
    </edge>
    <edge id=":2/0_1" function="internal">
        <lane id=":2/0_1_0" index="0" speed="13.90" length="3.18" shape="198.35,4.75 198.75,1.95 198.93,1.65"/>
    </edge>
    <edge id=":2/0_2" function="internal">
        <lane id=":2/0_2_0" index="0" speed="13.90" length="2.41" shape="198.35,4.75 199.17,3.51 200.00,3.10"/>
    </edge>
    <edge id=":2/0_9" function="internal">
        <lane id=":2/0_9_0" index="0" speed="13.90" length="7.14" shape="198.93,1.65 199.95,-0.05 201.95,-1.25 204.75,-1.65"/>
    </edge>
    <edge id=":2/0_10" function="internal">
        <lane id=":2/0_10_0" index="0" speed="13.90" length="2.41" shape="200.00,3.10 200.82,3.51 201.65,4.75"/>
    </edge>
    <edge id=":2/0_3" function="internal">
        <lane id=":2/0_3_0" index="0" speed="13.90" length="5.00" shape="204.75,1.65 203.39,1.84 202.42,2.42 201.84,3.39 201.65,4.75"/>
    </edge>
    <edge id=":2/0_4" function="internal">
        <lane id=":2/0_4_0" index="0" speed="13.90" length="9.50" shape="204.75,1.65 195.25,1.65"/>
    </edge>
    <edge id=":2/0_5" function="internal">
        <lane id=":2/0_5_0" index="0" speed="13.90" length="2.41" shape="204.75,1.65 203.51,0.83 203.10,0.00"/>
    </edge>
    <edge id=":2/0_11" function="internal">
        <lane id=":2/0_11_0" index="0" speed="13.90" length="2.41" shape="203.10,0.00 203.51,-0.82 204.75,-1.65"/>
    </edge>
    <edge id=":2/0_6" function="internal">
        <lane id=":2/0_6_0" index="0" speed="13.90" length="9.50" shape="195.25,-1.65 204.75,-1.65"/>
    </edge>
    <edge id=":2/0_7" function="internal">
        <lane id=":2/0_7_0" index="0" speed="13.90" length="7.14" shape="195.25,-1.65 198.05,-1.25 200.05,-0.05 201.07,1.65"/>
    </edge>
    <edge id=":2/0_8" function="internal">
        <lane id=":2/0_8_0" index="0" speed="13.90" length="2.41" shape="195.25,-1.65 196.49,-0.83 196.90,-0.00"/>
    </edge>
    <edge id=":2/0_12" function="internal">
        <lane id=":2/0_12_0" index="0" speed="13.90" length="3.18" shape="201.07,1.65 201.25,1.95 201.65,4.75"/>
    </edge>
    <edge id=":2/0_13" function="internal">
        <lane id=":2/0_13_0" index="0" speed="13.90" length="2.41" shape="196.90,-0.00 196.49,0.82 195.25,1.65"/>
    </edge>
    <edge id=":2/1_0" function="internal">
        <lane id=":2/1_0_0" index="0" speed="13.90" length="9.50" shape="204.75,11.65 195.25,11.65"/>
    </edge>
    <edge id=":2/1_1" function="internal">
        <lane id=":2/1_1_0" index="0" speed="13.90" length="7.14" shape="204.75,11.65 201.95,11.25 199.95,10.05 198.93,8.35"/>
    </edge>
    <edge id=":2/1_2" function="internal">
        <lane id=":2/1_2_0" index="0" speed="13.90" length="2.41" shape="204.75,11.65 203.51,10.83 203.10,10.00"/>
    </edge>
    <edge id=":2/1_9" function="internal">
        <lane id=":2/1_9_0" index="0" speed="13.90" length="3.18" shape="198.93,8.35 198.75,8.05 198.35,5.25"/>
    </edge>
    <edge id=":2/1_10" function="internal">
        <lane id=":2/1_10_0" index="0" speed="13.90" length="2.41" shape="203.10,10.00 203.51,9.18 204.75,8.35"/>
    </edge>
    <edge id=":2/1_3" function="internal">
        <lane id=":2/1_3_0" index="0" speed="13.90" length="5.00" shape="201.65,5.25 201.84,6.61 202.43,7.57 203.39,8.16 204.75,8.35"/>
    </edge>
    <edge id=":2/1_4" function="internal">
        <lane id=":2/1_4_0" index="0" speed="13.90" length="3.18" shape="201.65,5.25 201.25,8.05 201.07,8.35"/>
    </edge>
    <edge id=":2/1_5" function="internal">
        <lane id=":2/1_5_0" index="0" speed="13.90" length="2.41" shape="201.65,5.25 200.83,6.49 200.00,6.90"/>
    </edge>
    <edge id=":2/1_11" function="internal">
        <lane id=":2/1_11_0" index="0" speed="13.90" length="7.14" shape="201.07,8.35 200.05,10.05 198.05,11.25 195.25,11.65"/>
    </edge>
    <edge id=":2/1_12" function="internal">
        <lane id=":2/1_12_0" index="0" speed="13.90" length="2.41" shape="200.00,6.90 199.18,6.49 198.35,5.25"/>
    </edge>
    <edge id=":2/1_6" function="internal">
        <lane id=":2/1_6_0" index="0" speed="13.90" length="5.00" shape="195.25,8.35 196.61,8.16 197.58,7.57 198.16,6.61 198.35,5.25"/>
    </edge>
    <edge id=":2/1_7" function="internal">
        <lane id=":2/1_7_0" index="0" speed="13.90" length="9.50" shape="195.25,8.35 204.75,8.35"/>
    </edge>
    <edge id=":2/1_8" function="internal">
        <lane id=":2/1_8_0" index="0" speed="13.90" length="2.41" shape="195.25,8.35 196.49,9.17 196.90,10.00"/>
    </edge>
    <edge id=":2/1_13" function="internal">
        <lane id=":2/1_13_0" index="0" speed="13.90" length="2.41" shape="196.90,10.00 196.49,10.82 195.25,11.65"/>
    </edge>
    <edge id=":3/0_0" function="internal">
        <lane id=":3/0_0_0" index="0" speed="13.90" length="5.00" shape="298.35,4.75 298.16,3.39 297.58,2.43 296.61,1.84 295.25,1.65"/>
    </edge>
    <edge id=":3/0_1" function="internal">
        <lane id=":3/0_1_0" index="0" speed="13.90" length="3.18" shape="298.35,4.75 298.75,1.95 298.93,1.65"/>
    </edge>
    <edge id=":3/0_2" function="internal">
        <lane id=":3/0_2_0" index="0" speed="13.90" length="2.41" shape="298.35,4.75 299.17,3.51 300.00,3.10"/>
    </edge>
    <edge id=":3/0_9" function="internal">
        <lane id=":3/0_9_0" index="0" speed="13.90" length="7.14" shape="298.93,1.65 299.95,-0.05 301.95,-1.25 304.75,-1.65"/>
    </edge>
    <edge id=":3/0_10" function="internal">
        <lane id=":3/0_10_0" index="0" speed="13.90" length="2.41" shape="300.00,3.10 300.82,3.51 301.65,4.75"/>
    </edge>
    <edge id=":3/0_3" function="internal">
        <lane id=":3/0_3_0" index="0" speed="13.90" length="5.00" shape="304.75,1.65 303.39,1.84 302.42,2.42 301.84,3.39 301.65,4.75"/>
    </edge>
    <edge id=":3/0_4" function="internal">
        <lane id=":3/0_4_0" index="0" speed="13.90" length="9.50" shape="304.75,1.65 295.25,1.65"/>
    </edge>
    <edge id=":3/0_5" function="internal">
        <lane id=":3/0_5_0" index="0" speed="13.90" length="2.41" shape="304.75,1.65 303.51,0.83 303.10,0.00"/>
    </edge>
    <edge id=":3/0_11" function="internal">
        <lane id=":3/0_11_0" index="0" speed="13.90" length="2.41" shape="303.10,0.00 303.51,-0.82 304.75,-1.65"/>
    </edge>
    <edge id=":3/0_6" function="internal">
        <lane id=":3/0_6_0" index="0" speed="13.90" length="9.50" shape="295.25,-1.65 304.75,-1.65"/>
    </edge>
    <edge id=":3/0_7" function="internal">
        <lane id=":3/0_7_0" index="0" speed="13.90" length="7.14" shape="295.25,-1.65 298.05,-1.25 300.05,-0.05 301.07,1.65"/>
    </edge>
    <edge id=":3/0_8" function="internal">
        <lane id=":3/0_8_0" index="0" speed="13.90" length="2.41" shape="295.25,-1.65 296.49,-0.83 296.90,-0.00"/>
    </edge>
    <edge id=":3/0_12" function="internal">
        <lane id=":3/0_12_0" index="0" speed="13.90" length="3.18" shape="301.07,1.65 301.25,1.95 301.65,4.75"/>
    </edge>
    <edge id=":3/0_13" function="internal">
        <lane id=":3/0_13_0" index="0" speed="13.90" length="2.41" shape="296.90,-0.00 296.49,0.82 295.25,1.65"/>
    </edge>
    <edge id=":3/1_0" function="internal">
        <lane id=":3/1_0_0" index="0" speed="13.90" length="9.50" shape="304.75,11.65 295.25,11.65"/>
    </edge>
    <edge id=":3/1_1" function="internal">
        <lane id=":3/1_1_0" index="0" speed="13.90" length="7.14" shape="304.75,11.65 301.95,11.25 299.95,10.05 298.93,8.35"/>
    </edge>
    <edge id=":3/1_2" function="internal">
        <lane id=":3/1_2_0" index="0" speed="13.90" length="2.41" shape="304.75,11.65 303.51,10.83 303.10,10.00"/>
    </edge>
    <edge id=":3/1_9" function="internal">
        <lane id=":3/1_9_0" index="0" speed="13.90" length="3.18" shape="298.93,8.35 298.75,8.05 298.35,5.25"/>
    </edge>
    <edge id=":3/1_10" function="internal">
        <lane id=":3/1_10_0" index="0" speed="13.90" length="2.41" shape="303.10,10.00 303.51,9.18 304.75,8.35"/>
    </edge>
    <edge id=":3/1_3" function="internal">
        <lane id=":3/1_3_0" index="0" speed="13.90" length="5.00" shape="301.65,5.25 301.84,6.61 302.42,7.57 303.39,8.16 304.75,8.35"/>
    </edge>
    <edge id=":3/1_4" function="internal">
        <lane id=":3/1_4_0" index="0" speed="13.90" length="3.18" shape="301.65,5.25 301.25,8.05 301.07,8.35"/>
    </edge>
    <edge id=":3/1_5" function="internal">
        <lane id=":3/1_5_0" index="0" speed="13.90" length="2.41" shape="301.65,5.25 300.83,6.49 300.00,6.90"/>
    </edge>
    <edge id=":3/1_11" function="internal">
        <lane id=":3/1_11_0" index="0" speed="13.90" length="7.14" shape="301.07,8.35 300.05,10.05 298.05,11.25 295.25,11.65"/>
    </edge>
    <edge id=":3/1_12" function="internal">
        <lane id=":3/1_12_0" index="0" speed="13.90" length="2.41" shape="300.00,6.90 299.18,6.49 298.35,5.25"/>
    </edge>
    <edge id=":3/1_6" function="internal">
        <lane id=":3/1_6_0" index="0" speed="13.90" length="5.00" shape="295.25,8.35 296.61,8.16 297.58,7.57 298.16,6.61 298.35,5.25"/>
    </edge>
    <edge id=":3/1_7" function="internal">
        <lane id=":3/1_7_0" index="0" speed="13.90" length="9.50" shape="295.25,8.35 304.75,8.35"/>
    </edge>
    <edge id=":3/1_8" function="internal">
        <lane id=":3/1_8_0" index="0" speed="13.90" length="2.41" shape="295.25,8.35 296.49,9.17 296.90,10.00"/>
    </edge>
    <edge id=":3/1_13" function="internal">
        <lane id=":3/1_13_0" index="0" speed="13.90" length="2.41" shape="296.90,10.00 296.49,10.82 295.25,11.65"/>
    </edge>
    <edge id=":4/0_0" function="internal">
        <lane id=":4/0_0_0" index="0" speed="13.90" length="5.00" shape="398.35,4.75 398.16,3.39 397.58,2.43 396.61,1.84 395.25,1.65"/>
    </edge>
    <edge id=":4/0_1" function="internal">
        <lane id=":4/0_1_0" index="0" speed="13.90" length="3.18" shape="398.35,4.75 398.75,1.95 398.93,1.65"/>
    </edge>
    <edge id=":4/0_2" function="internal">
        <lane id=":4/0_2_0" index="0" speed="13.90" length="2.41" shape="398.35,4.75 399.17,3.51 400.00,3.10"/>
    </edge>
    <edge id=":4/0_9" function="internal">
        <lane id=":4/0_9_0" index="0" speed="13.90" length="7.14" shape="398.93,1.65 399.95,-0.05 401.95,-1.25 404.75,-1.65"/>
    </edge>
    <edge id=":4/0_10" function="internal">
        <lane id=":4/0_10_0" index="0" speed="13.90" length="2.41" shape="400.00,3.10 400.82,3.51 401.65,4.75"/>
    </edge>
    <edge id=":4/0_3" function="internal">
        <lane id=":4/0_3_0" index="0" speed="13.90" length="5.00" shape="404.75,1.65 403.39,1.84 402.42,2.42 401.84,3.39 401.65,4.75"/>
    </edge>
    <edge id=":4/0_4" function="internal">
        <lane id=":4/0_4_0" index="0" speed="13.90" length="9.50" shape="404.75,1.65 395.25,1.65"/>
    </edge>
    <edge id=":4/0_5" function="internal">
        <lane id=":4/0_5_0" index="0" speed="13.90" length="2.41" shape="404.75,1.65 403.51,0.83 403.10,0.00"/>
    </edge>
    <edge id=":4/0_11" function="internal">
        <lane id=":4/0_11_0" index="0" speed="13.90" length="2.41" shape="403.10,0.00 403.51,-0.82 404.75,-1.65"/>
    </edge>
    <edge id=":4/0_6" function="internal">
        <lane id=":4/0_6_0" index="0" speed="13.90" length="9.50" shape="395.25,-1.65 404.75,-1.65"/>
    </edge>
    <edge id=":4/0_7" function="internal">
        <lane id=":4/0_7_0" index="0" speed="13.90" length="7.14" shape="395.25,-1.65 398.05,-1.25 400.05,-0.05 401.07,1.65"/>
    </edge>
    <edge id=":4/0_8" function="internal">
        <lane id=":4/0_8_0" index="0" speed="13.90" length="2.41" shape="395.25,-1.65 396.49,-0.83 396.90,-0.00"/>
    </edge>
    <edge id=":4/0_12" function="internal">
        <lane id=":4/0_12_0" index="0" speed="13.90" length="3.18" shape="401.07,1.65 401.25,1.95 401.65,4.75"/>
    </edge>
    <edge id=":4/0_13" function="internal">
        <lane id=":4/0_13_0" index="0" speed="13.90" length="2.41" shape="396.90,-0.00 396.49,0.82 395.25,1.65"/>
    </edge>
    <edge id=":4/1_0" function="internal">
        <lane id=":4/1_0_0" index="0" speed="13.90" length="9.50" shape="404.75,11.65 395.25,11.65"/>
    </edge>
    <edge id=":4/1_1" function="internal">
        <lane id=":4/1_1_0" index="0" speed="13.90" length="7.14" shape="404.75,11.65 401.95,11.25 399.95,10.05 398.93,8.35"/>
    </edge>
    <edge id=":4/1_2" function="internal">
        <lane id=":4/1_2_0" index="0" speed="13.90" length="2.41" shape="404.75,11.65 403.51,10.83 403.10,10.00"/>
    </edge>
    <edge id=":4/1_9" function="internal">
        <lane id=":4/1_9_0" index="0" speed="13.90" length="3.18" shape="398.93,8.35 398.75,8.05 398.35,5.25"/>
    </edge>
    <edge id=":4/1_10" function="internal">
        <lane id=":4/1_10_0" index="0" speed="13.90" length="2.41" shape="403.10,10.00 403.51,9.18 404.75,8.35"/>
    </edge>
    <edge id=":4/1_3" function="internal">
        <lane id=":4/1_3_0" index="0" speed="13.90" length="5.00" shape="401.65,5.25 401.84,6.61 402.42,7.57 403.39,8.16 404.75,8.35"/>
    </edge>
    <edge id=":4/1_4" function="internal">
        <lane id=":4/1_4_0" index="0" speed="13.90" length="3.18" shape="401.65,5.25 401.25,8.05 401.07,8.35"/>
    </edge>
    <edge id=":4/1_5" function="internal">
        <lane id=":4/1_5_0" index="0" speed="13.90" length="2.41" shape="401.65,5.25 400.83,6.49 400.00,6.90"/>
    </edge>
    <edge id=":4/1_11" function="internal">
        <lane id=":4/1_11_0" index="0" speed="13.90" length="7.14" shape="401.07,8.35 400.05,10.05 398.05,11.25 395.25,11.65"/>
    </edge>
    <edge id=":4/1_12" function="internal">
        <lane id=":4/1_12_0" index="0" speed="13.90" length="2.41" shape="400.00,6.90 399.18,6.49 398.35,5.25"/>
    </edge>
    <edge id=":4/1_6" function="internal">
        <lane id=":4/1_6_0" index="0" speed="13.90" length="5.00" shape="395.25,8.35 396.61,8.16 397.58,7.57 398.16,6.61 398.35,5.25"/>
    </edge>
    <edge id=":4/1_7" function="internal">
        <lane id=":4/1_7_0" index="0" speed="13.90" length="9.50" shape="395.25,8.35 404.75,8.35"/>
    </edge>
    <edge id=":4/1_8" function="internal">
        <lane id=":4/1_8_0" index="0" speed="13.90" length="2.41" shape="395.25,8.35 396.49,9.17 396.90,10.00"/>
    </edge>
    <edge id=":4/1_13" function="internal">
        <lane id=":4/1_13_0" index="0" speed="13.90" length="2.41" shape="396.90,10.00 396.49,10.82 395.25,11.65"/>
    </edge>
    <edge id=":5/0_0" function="internal">
        <lane id=":5/0_0_0" index="0" speed="13.90" length="5.00" shape="498.35,4.75 498.16,3.39 497.58,2.43 496.61,1.84 495.25,1.65"/>
    </edge>
    <edge id=":5/0_1" function="internal">
        <lane id=":5/0_1_0" index="0" speed="13.90" length="3.18" shape="498.35,4.75 498.75,1.95 498.93,1.65"/>
    </edge>
    <edge id=":5/0_2" function="internal">
        <lane id=":5/0_2_0" index="0" speed="13.90" length="2.41" shape="498.35,4.75 499.18,3.51 500.00,3.10"/>
    </edge>
    <edge id=":5/0_9" function="internal">
        <lane id=":5/0_9_0" index="0" speed="13.90" length="7.14" shape="498.93,1.65 499.95,-0.05 501.95,-1.25 504.75,-1.65"/>
    </edge>
    <edge id=":5/0_10" function="internal">
        <lane id=":5/0_10_0" index="0" speed="13.90" length="2.41" shape="500.00,3.10 500.82,3.51 501.65,4.75"/>
    </edge>
    <edge id=":5/0_3" function="internal">
        <lane id=":5/0_3_0" index="0" speed="13.90" length="5.00" shape="504.75,1.65 503.39,1.84 502.42,2.42 501.84,3.39 501.65,4.75"/>
    </edge>
    <edge id=":5/0_4" function="internal">
        <lane id=":5/0_4_0" index="0" speed="13.90" length="9.50" shape="504.75,1.65 495.25,1.65"/>
    </edge>
    <edge id=":5/0_5" function="internal">
        <lane id=":5/0_5_0" index="0" speed="13.90" length="2.41" shape="504.75,1.65 503.51,0.83 503.10,0.00"/>
    </edge>
    <edge id=":5/0_11" function="internal">
        <lane id=":5/0_11_0" index="0" speed="13.90" length="2.41" shape="503.10,0.00 503.51,-0.82 504.75,-1.65"/>
    </edge>
    <edge id=":5/0_6" function="internal">
        <lane id=":5/0_6_0" index="0" speed="13.90" length="9.50" shape="495.25,-1.65 504.75,-1.65"/>
    </edge>
    <edge id=":5/0_7" function="internal">
        <lane id=":5/0_7_0" index="0" speed="13.90" length="7.14" shape="495.25,-1.65 498.05,-1.25 500.05,-0.05 501.07,1.65"/>
    </edge>
    <edge id=":5/0_8" function="internal">
        <lane id=":5/0_8_0" index="0" speed="13.90" length="2.41" shape="495.25,-1.65 496.49,-0.83 496.90,-0.00"/>
    </edge>
    <edge id=":5/0_12" function="internal">
        <lane id=":5/0_12_0" index="0" speed="13.90" length="3.18" shape="501.07,1.65 501.25,1.95 501.65,4.75"/>
    </edge>
    <edge id=":5/0_13" function="internal">
        <lane id=":5/0_13_0" index="0" speed="13.90" length="2.41" shape="496.90,-0.00 496.49,0.82 495.25,1.65"/>
    </edge>
    <edge id=":5/1_0" function="internal">
        <lane id=":5/1_0_0" index="0" speed="13.90" length="9.50" shape="504.75,11.65 495.25,11.65"/>
    </edge>
    <edge id=":5/1_1" function="internal">
        <lane id=":5/1_1_0" index="0" speed="13.90" length="7.14" shape="504.75,11.65 501.95,11.25 499.95,10.05 498.93,8.35"/>
    </edge>
    <edge id=":5/1_2" function="internal">
        <lane id=":5/1_2_0" index="0" speed="13.90" length="2.41" shape="504.75,11.65 503.51,10.83 503.10,10.00"/>
    </edge>
    <edge id=":5/1_9" function="internal">
        <lane id=":5/1_9_0" index="0" speed="13.90" length="3.18" shape="498.93,8.35 498.75,8.05 498.35,5.25"/>
    </edge>
    <edge id=":5/1_10" function="internal">
        <lane id=":5/1_10_0" index="0" speed="13.90" length="2.41" shape="503.10,10.00 503.51,9.18 504.75,8.35"/>
    </edge>
    <edge id=":5/1_3" function="internal">
        <lane id=":5/1_3_0" index="0" speed="13.90" length="5.00" shape="501.65,5.25 501.84,6.61 502.42,7.57 503.39,8.16 504.75,8.35"/>
    </edge>
    <edge id=":5/1_4" function="internal">
        <lane id=":5/1_4_0" index="0" speed="13.90" length="3.18" shape="501.65,5.25 501.25,8.05 501.07,8.35"/>
    </edge>
    <edge id=":5/1_5" function="internal">
        <lane id=":5/1_5_0" index="0" speed="13.90" length="2.41" shape="501.65,5.25 500.82,6.49 500.00,6.90"/>
    </edge>
    <edge id=":5/1_11" function="internal">
        <lane id=":5/1_11_0" index="0" speed="13.90" length="7.14" shape="501.07,8.35 500.05,10.05 498.05,11.25 495.25,11.65"/>
    </edge>
    <edge id=":5/1_12" function="internal">
        <lane id=":5/1_12_0" index="0" speed="13.90" length="2.41" shape="500.00,6.90 499.18,6.49 498.35,5.25"/>
    </edge>
    <edge id=":5/1_6" function="internal">
        <lane id=":5/1_6_0" index="0" speed="13.90" length="5.00" shape="495.25,8.35 496.61,8.16 497.58,7.57 498.16,6.61 498.35,5.25"/>
    </edge>
    <edge id=":5/1_7" function="internal">
        <lane id=":5/1_7_0" index="0" speed="13.90" length="9.50" shape="495.25,8.35 504.75,8.35"/>
    </edge>
    <edge id=":5/1_8" function="internal">
        <lane id=":5/1_8_0" index="0" speed="13.90" length="2.41" shape="495.25,8.35 496.49,9.17 496.90,10.00"/>
    </edge>
    <edge id=":5/1_13" function="internal">
        <lane id=":5/1_13_0" index="0" speed="13.90" length="2.41" shape="496.90,10.00 496.49,10.82 495.25,11.65"/>
    </edge>
    <edge id=":6/0_0" function="internal">
        <lane id=":6/0_0_0" index="0" speed="13.90" length="2.58" shape="598.35,3.25 598.25,2.55 597.95,2.05 597.45,1.75 596.75,1.65"/>
    </edge>
    <edge id=":6/0_1" function="internal">
        <lane id=":6/0_1_0" index="0" speed="13.90" length="2.41" shape="598.35,3.25 599.18,2.01 600.00,1.60"/>
    </edge>
    <edge id=":6/0_4" function="internal">
        <lane id=":6/0_4_0" index="0" speed="13.90" length="2.41" shape="600.00,1.60 600.83,2.01 601.65,3.25"/>
    </edge>
    <edge id=":6/0_2" function="internal">
        <lane id=":6/0_2_0" index="0" speed="13.90" length="7.90" shape="596.75,-1.65 598.89,-1.34 600.42,-0.42 601.34,1.11 601.65,3.25"/>
    </edge>
    <edge id=":6/0_3" function="internal">
        <lane id=":6/0_3_0" index="0" speed="13.90" length="2.41" shape="596.75,-1.65 597.99,-0.83 598.40,-0.00"/>
    </edge>
    <edge id=":6/0_5" function="internal">
        <lane id=":6/0_5_0" index="0" speed="13.90" length="2.41" shape="598.40,-0.00 597.99,0.82 596.75,1.65"/>
    </edge>
    <edge id=":6/1_0" function="internal">
        <lane id=":6/1_0_0" index="0" speed="13.90" length="7.90" shape="601.65,6.75 601.34,8.89 600.42,10.43 598.89,11.34 596.75,11.65"/>
    </edge>
    <edge id=":6/1_1" function="internal">
        <lane id=":6/1_1_0" index="0" speed="13.90" length="2.41" shape="601.65,6.75 600.82,7.99 600.00,8.40"/>
    </edge>
    <edge id=":6/1_4" function="internal">
        <lane id=":6/1_4_0" index="0" speed="13.90" length="2.41" shape="600.00,8.40 599.17,7.99 598.35,6.75"/>
    </edge>
    <edge id=":6/1_2" function="internal">
        <lane id=":6/1_2_0" index="0" speed="13.90" length="2.58" shape="596.75,8.35 597.45,8.25 597.95,7.95 598.25,7.45 598.35,6.75"/>
    </edge>
    <edge id=":6/1_3" function="internal">
        <lane id=":6/1_3_0" index="0" speed="13.90" length="2.41" shape="596.75,8.35 597.99,9.17 598.40,10.00"/>
    </edge>
    <edge id=":6/1_5" function="internal">
        <lane id=":6/1_5_0" index="0" speed="13.90" length="2.41" shape="598.40,10.00 597.99,10.82 596.75,11.65"/>
    </edge>

    <edge id="0/0to0/1" from="0/0" to="0/1" priority="-1">
        <lane id="0/0to0/1_0" index="0" speed="13.90" length="3.50" shape="1.65,3.25 1.65,6.75"/>
    </edge>
    <edge id="0/0to1/0" from="0/0" to="1/0" priority="-1">
        <lane id="0/0to1/0_0" index="0" speed="13.90" length="92.00" shape="3.25,-1.65 95.25,-1.65"/>
    </edge>
    <edge id="0/1to0/0" from="0/1" to="0/0" priority="-1">
        <lane id="0/1to0/0_0" index="0" speed="13.90" length="3.50" shape="-1.65,6.75 -1.65,3.25"/>
    </edge>
    <edge id="0/1to1/1" from="0/1" to="1/1" priority="-1">
        <lane id="0/1to1/1_0" index="0" speed="13.90" length="92.00" shape="3.25,8.35 95.25,8.35"/>
    </edge>
    <edge id="1/0to0/0" from="1/0" to="0/0" priority="-1">