<?xml version="1.0" encoding="UTF-8" standalone="yes"?>
<routes>
	<vehicle id="t0" depart="0" departLane="best" departPos="random_free">
		<route edges="190478684#2 -190478684#2 -190478684#1 -161687499#2 161687499#2"/>
	</vehicle>
	<vehicle id="t1" depart="0" departLane="best" departPos="random_free">
		<route edges="186076371#3 -186076371#3 -186076371#2 -186076371#1"/>
	</vehicle>
	<vehicle id="t2" depart="0" departLane="best" departPos="random_free">
		<route edges="161687499#1 161687499#2 190478684#1"/>
	</vehicle>
	<vehicle id="t3" depart="0" departLane="best" departPos="random_free">
		<route edges="-185948996#1 -185948996#0 -185948992#1 -185948992#0 -172603544#2 -186076371#1 -190478684#2 -161687525"/>
	</vehicle>
	<vehicle id="t4" depart="0" departLane="best" departPos="random_free">
		<route edges="185948989 161687499#2 -190478684#0 190478684#0"/>
	</vehicle>
	<vehicle id="t5" depart="0" departLane="best" departPos="random_free">
		<route edges="-161687499#2 161687499#2 -190478684#0"/>
	</vehicle>
	<vehicle id="t6" depart="0" departLane="best" departPos="random_free">
		<route edges="190478684#3 -190478684#3 186076371#1 186076371#2 186076371#3 186076371#4"/>
	</vehicle>
	<vehicle id="t7" depart="0" departLane="best" departPos="random_free">
		<route edges="186076403#1 186076403#2 186076403#3 185949000#0 -186076371#4 -186076371#3 -186076371#2 -186076371#1 -190478684#2"/>
	</vehicle>
	<vehicle id="t8" depart="0" departLane="best" departPos="random_free">
		<route edges="185949000#1 -206346809#1 -206346809#0"/>
	</vehicle>
	<vehicle id="t9" depart="0" departLane="best" departPos="random_free">
		<route edges="172603544#0 172603544#1 -186076371#1 -190478684#2"/>
	</vehicle>
	<vehicle id="t10" depart="0" departLane="best" departPos="random_free">
		<route edges="190478684#1 190478684#2 -190478684#2"/>
	</vehicle>
	<vehicle id="t11" depart="0" departLane="best" departPos="random_free">
		<route edges="186076403#1 186076403#2 186076403#3 185949000#0 185949000#1 -206346809#1 161809364 185948989 161687499#2 -190478684#0"/>
	</vehicle>
	<vehicle id="t12" depart="0" departLane="best" departPos="random_free">
		<route edges="-172603544#1 206346809#1 -206346809#1"/>
	</vehicle>
	<vehicle id="t13" depart="0" departLane="best" departPos="random_free">
		<route edges="186076403#1 186076403#2 186076403#3 185949000#0 185949000#1 -206346809#1 -206346809#0 206346809#0"/>
	</vehicle>
	<vehicle id="t14" depart="0" departLane="best" departPos="random_free">
		<route edges="-161687525 161687525 190478684#2 186076371#1 172603544#2 185948992#0 185948992#1 186076403#0 186076403#1 186076403#2 186076403#3"/>
	</vehicle>
	<vehicle id="t15" depart="0" departLane="best" departPos="random_free">
		<route edges="-186076371#3 -186076371#2 172603544#2 185948992#0 185948992#1 -185948992#1"/>
	</vehicle>
	<vehicle id="t16" depart="0" departLane="best" departPos="random_free">
		<route edges="-190478684#2 190478684#2 186076371#1 172603544#2"/>
	</vehicle>
	<vehicle id="t17" depart="0" departLane="best" departPos="random_free">
		<route edges="-161687525 161687525"/>
	</vehicle>
	<vehicle id="t18" depart="0" departLane="best" departPos="random_free">
		<route edges="-186076371#4 -186076371#3 -186076371#2 -172603544#1"/>
	</vehicle>
	<vehicle id="t19" depart="0" departLane="best" departPos="random_free">
		<route edges="-185948996#1 -185948996#0 -185948992#1 -185948992#0 -172603544#2 -186076371#1 186076371#1"/>
	</vehicle>
	<vehicle id="t20" depart="0" departLane="best" departPos="random_free">
		<route edges="186076371#0 190478684#3 -190478684#3"/>
	</vehicle>
	<vehicle id="t21" depart="0" departLane="best" departPos="random_free">
		<route edges="186076371#0 186076371#1"/>
	</vehicle>
	<vehicle id="t22" depart="0" departLane="best" departPos="random_free">
		<route edges="161687499#1 161687499#2 190478684#1"/>
	</vehicle>
	<vehicle id="t23" depart="0" departLane="best" departPos="random_free">
		<route edges="-190478684#1 190478684#1 190478684#2 -186076371#0"/>
	</vehicle>
	<vehicle id="t24" depart="0" departLane="best" departPos="random_free">
		<route edges="206346809#0 172603544#1 -186076371#1 190478684#3 186076402"/>
	</vehicle>
	<vehicle id="t25" depart="0" departLane="best" departPos="random_free">
		<route edges="186076371#0 186076371#1 172603544#2 185948992#0 185948992#1 185948996#0"/>
	</vehicle>
	<vehicle id="t26" depart="0" departLane="best" departPos="random_free">
		<route edges="206346809#1 -206346809#1 172603544#1 186076371#2 186076371#3 186076371#4 -186076371#4"/>
	</vehicle>
	<vehicle id="t27" depart="0" departLane="best" departPos="random_free">
		<route edges="186076371#1 -186076371#1 -186076371#0 186076371#0"/>
	</vehicle>
	<vehicle id="t28" depart="0" departLane="best" departPos="random_free">
		<route edges="-185948996#1 -185948996#0 -185948992#1 -185948992#0 -172603544#2 -186076371#1 -186076371#0 186076371#0"/>
	</vehicle>
	<vehicle id="t29" depart="0" departLane="best" departPos="random_free">
		<route edges="-185948996#0 -185948992#1 -185948992#0 -172603544#2 -172603544#1 -206346809#0"/>
	</vehicle>
	<vehicle id="t30" depart="0" departLane="best" departPos="random_free">
		<route edges="-185948996#1 -185948996#0 -185948992#1 -185948992#0 -172603544#2 -186076371#1 190478684#3 186076402"/>
	</vehicle>
	<vehicle id="t31" depart="0" departLane="best" departPos="random_free">
		<route edges="186076403#2 186076403#3 185949000#0 -186076371#4 -186076371#3 -186076371#2 172603544#2 185948992#0 185948992#1 185948996#0 185948996#1"/>
	</vehicle>
	<vehicle id="t32" depart="0" departLane="best" departPos="random_free">
		<route edges="161687499#1 161687499#2 190478684#1 206346809#0 -172603544#0"/>
	</vehicle>
	<vehicle id="t33" depart="0" departLane="best" departPos="random_free">
		<route edges="-186076371#0"/>
	</vehicle>
	<vehicle id="t34" depart="0" departLane="best" departPos="random_free">
		<route edges="-161687525"/>
	</vehicle>
	<vehicle id="t35" depart="0" departLane="best" departPos="random_free">
		<route edges="186076402 -185948992#1 -185948992#0 -172603544#2 -186076371#1 -190478684#2 206346809#0"/>
	</vehicle>
	<vehicle id="t36" depart="0" departLane="best" departPos="random_free">
		<route edges="-206346809#1 -206346809#0 -161687525 161687525"/>
	</vehicle>
	<vehicle id="t37" depart="0" departLane="best" departPos="random_free">
		<route edges="-161687499#2 161687499#2 190478684#1 -161687525"/>
	</vehicle>
	<vehicle id="t38" depart="0" departLane="best" departPos="random_free">
		<route edges="-190478684#0 190478684#0 190478684#1 -161687525 161687525"/>
	</vehicle>
	<vehicle id="t39" depart="0" departLane="best" departPos="random_free">
		<route edges="161687525 -190478684#1 -161687499#2 -161687499#1 161687499#1"/>
	</vehicle>
	<vehicle id="t40" depart="0" departLane="best" departPos="random_free">
		<route edges="-186076371#1 -190478684#2 -190478684#1 -161687499#2 -161687499#1"/>
	</vehicle>
	<vehicle id="t41" depart="0" departLane="best" departPos="random_free">
		<route edges="-186076371#1 -190478684#2 -190478684#1 -161687499#2 -161687499#1"/>
	</vehicle>
	<vehicle id="t42" depart="0" departLane="best" departPos="random_free">
		<route edges="-161687499#2 161687499#2 190478684#1"/>
	</vehicle>
	<vehicle id="t43" depart="0" departLane="best" departPos="random_free">
		<route edges="-206346809#0 190478684#2 186076371#1 172603544#2 185948992#0 185948992#1 186076403#0 186076403#1"/>
	</vehicle>
	<vehicle id="t44" depart="0" departLane="best" departPos="random_free">
		<route edges="190478684#0 -161687499#2"/>
	</vehicle>
	<vehicle id="t45" depart="0" departLane="best" departPos="random_free">
		<route edges="-186076371#0 186076371#0 186076371#1 172603544#2 185948992#0 185948992#1"/>
	</vehicle>
	<vehicle id="t46" depart="0" departLane="best" departPos="random_free">
		<route edges="-206346809#1 172603544#1 172603544#2 185948992#0 185948992#1 -185948992#1"/>
	</vehicle>
	<vehicle id="t47" depart="0" departLane="best" departPos="random_free">
		<route edges="-186076371#0 186076371#0 186076371#1 186076371#2 186076371#3"/>
	</vehicle>
	<vehicle id="t48" depart="0" departLane="best" departPos="random_free">
		<route edges="161687499#1 161687499#2 190478684#1 -161687525 161687525"/>
	</vehicle>
	<vehicle id="t49" depart="0" departLane="best" departPos="random_free">
		<route edges="186076403#0 186076403#1 186076403#2 186076403#3 185949000#0 185949000#1 -206346809#1 172603544#1"/>
	</vehicle>
	<vehicle id="t50" depart="0" departLane="best" departPos="random_free">
		<route edges="190478684#1 206346809#0 172603544#1"/>
	</vehicle>
	<vehicle id="t51" depart="0" departLane="best" departPos="random_free">
		<route edges="-172603544#1 -206346809#0 206346809#0"/>
	</vehicle>
	<vehicle id="t52" depart="0" departLane="best" departPos="random_free">
		<route edges="161687499#2 190478684#1 190478684#2 186076371#1 172603544#2 185948992#0 185948992#1 185948996#0 185948996#1 -185948996#1"/>
	</vehicle>
	<vehicle id="t53" depart="0" departLane="best" departPos="random_free">
		<route edges="-186076371#2 -186076371#1 190478684#3 -190478684#3"/>
	</vehicle>
	<vehicle id="t54" depart="0" departLane="best" departPos="random_free">
		<route edges="190478684#0 190478684#1 -190478684#1"/>
	</vehicle>
	<vehicle id="t55" depart="0" departLane="best" departPos="random_free">
		<route edges="-161687499#2 161687499#2 190478684#1 190478684#2 186076371#1 186076371#2 186076371#3 186076371#4 -186076371#4"/>
	</vehicle>
	<vehicle id="t56" depart="0" departLane="best" departPos="random_free">
		<route edges="185948989 -161687499#1"/>
	</vehicle>
	<vehicle id="t57" depart="0" departLane="best" departPos="random_free">
		<route edges="206346809#0 -206346809#0 -161687525 161687525"/>
	</vehicle>
	<vehicle id="t58" depart="0" departLane="best" departPos="random_free">
		<route edges="190478684#0 190478684#1 190478684#2 186076371#1 172603544#2 185948992#0 185948992#1 186076403#0 186076403#1 186076403#2 186076403#3 185949000#0"/>
	</vehicle>
	<vehicle id="t59" depart="0" departLane="best" departPos="random_free">
		<route edges="190478684#0 190478684#1 190478684#2 186076371#1 172603544#2 185948992#0 185948992#1 186076403#0 186076403#1 186076403#2 186076403#3 185949000#0"/>
	</vehicle>
	<vehicle id="t60" depart="0" departLane="best" departPos="random_free">
		<route edges="161687499#2 190478684#1 206346809#0"/>
	</vehicle>
	<vehicle id="t61" depart="0" departLane="best" departPos="random_free">
		<route edges="-206346809#1 172603544#1 172603544#2"/>
	</vehicle>
	<vehicle id="t62" depart="0" departLane="best" departPos="random_free">
		<route edges="185948996#1 -185948996#1 -185948996#0 -185948992#1 -185948992#0 -172603544#2 -186076371#1 -190478684#2 206346809#0"/>
	</vehicle>
	<vehicle id="t63" depart="0" departLane="best" departPos="random_free">
		<route edges="186076371#1 186076371#2 186076371#3 186076371#4 185949000#1"/>
	</vehicle>
	<vehicle id="t64" depart="0" departLane="best" departPos="random_free">
		<route edges="-190478684#0 190478684#0 190478684#1 190478684#2 186076371#1 186076371#2 186076371#3 -186076371#3"/>
	</vehicle>
	<vehicle id="t65" depart="0" departLane="best" departPos="random_free">
		<route edges="206346809#1 -206346809#1 172603544#1 186076371#2 186076371#3 -186076371#3"/>
	</vehicle>
	<vehicle id="t66" depart="0" departLane="best" departPos="random_free">
		<route edges="-206346809#0 190478684#2 190478684#3 -190478684#3"/>
	</vehicle>
	<vehicle id="t67" depart="0" departLane="best" departPos="random_free">
		<route edges="172603544#1 -186076371#1 -186076371#0"/>
	</vehicle>
	<vehicle id="t68" depart="0" departLane="best" departPos="random_free">
		<route edges="-161687499#2 161687499#2 190478684#1 190478684#2 -186076371#0 186076371#0"/>
	</vehicle>
	<vehicle id="t69" depart="0" departLane="best" departPos="random_free">
		<route edges="-206346809#1 172603544#1 -186076371#1 -186076371#0"/>
	</vehicle>
	<vehicle id="t70" depart="0" departLane="best" departPos="random_free">
		<route edges="-186076371#1 -190478684#2 -190478684#1 -161687499#2 -161687499#1 161687499#1"/>
	</vehicle>
	<vehicle id="t71" depart="0" departLane="best" departPos="random_free">
		<route edges="-161687525 161687525 190478684#2 186076371#1 186076371#2 -186076371#2"/>
	</vehicle>
	<vehicle id="t72" depart="0" departLane="best" departPos="random_free">
		<route edges="161687499#2 190478684#1 -190478684#1"/>
	</vehicle>
	<vehicle id="t73" depart="0" departLane="best" departPos="random_free">
		<route edges="190478684#3 186076402"/>
	</vehicle>
	<vehicle id="t74" depart="0" departLane="best" departPos="random_free">
		<route edges="-185948992#0 185948992#0 185948992#1 185948996#0"/>
	</vehicle>
	<vehicle id="t75" depart="0" departLane="best" departPos="random_free">
		<route edges="-186076371#0 186076371#0 -190478684#2 -161687525 161687525"/>
	</vehicle>
	<vehicle id="t76" depart="0" departLane="best" departPos="random_free">
		<route edges="-161687499#2 161687499#2 190478684#1 190478684#2 186076371#1 172603544#2 185948992#0 185948992#1 186076403#0 186076403#1"/>
	</vehicle>
	<vehicle id="t77" depart="0" departLane="best" departPos="random_free">
		<route edges="161687499#2 -190478684#0"/>
	</vehicle>
	<vehicle id="t78" depart="0" departLane="best" departPos="random_free">
		<route edges="206346809#1"/>
	</vehicle>
	<vehicle id="t79" depart="0" departLane="best" departPos="random_free">
		<route edges="161687499#1 161687499#2 190478684#1 206346809#0 172603544#1"/>
	</vehicle>
	<vehicle id="t80" depart="0" departLane="best" departPos="random_free">
		<route edges="-186076371#0 186076371#0 186076371#1 186076371#2 186076371#3 186076371#4 185949000#1"/>
	</vehicle>
	<vehicle id="t81" depart="0" departLane="best" departPos="random_free">
		<route edges="186076371#1 -186076371#1"/>
	</vehicle>
	<vehicle id="t82" depart="0" departLane="best" departPos="random_free">
		<route edges="-206346809#0 190478684#2 -186076371#0 186076371#0"/>
	</vehicle>
	<vehicle id="t83" depart="0" departLane="best" departPos="random_free">
		<route edges="-161687525 161687525 -190478684#1"/>
	</vehicle>
	<vehicle id="t84" depart="0" departLane="best" departPos="random_free">
		<route edges="186076371#2 -186076371#2 172603544#2 185948992#0 185948992#1 185948996#0 185948996#1"/>
	</vehicle>
	<vehicle id="t85" depart="0" departLane="best" departPos="random_free">
		<route edges="186076371#3 -186076371#3 -186076371#2"/>
	</vehicle>
	<vehicle id="t86" depart="0" departLane="best" departPos="random_free">
		<route edges="161687525 190478684#2 186076371#1 172603544#2 185948992#0 185948992#1 186076403#0"/>
	</vehicle>
	<vehicle id="t87" depart="0" departLane="best" departPos="random_free">
		<route edges="172603544#1 -186076371#1 -190478684#2"/>
	</vehicle>
	<vehicle id="t88" depart="0" departLane="best" departPos="random_free">
		<route edges="186076402 -185948992#1 -185948992#0 -172603544#2 -172603544#1 206346809#1 -206346809#1"/>
	</vehicle>
	<vehicle id="t89" depart="0" departLane="best" departPos="random_free">
		<route edges="161687499#1 161687499#2 190478684#1 206346809#0 206346809#1 -206346809#1"/>
	</vehicle>
	<vehicle id="t90" depart="0" departLane="best" departPos="random_free">
		<route edges="-190478684#2 -190478684#1 -190478684#0"/>
	</vehicle>
	<vehicle id="t91" depart="0" departLane="best" departPos="random_free">
		<route edges="206346809#1 -206346809#1"/>
	</vehicle>
	<vehicle id="t92" depart="0" departLane="best" departPos="random_free">
		<route edges="-186076371#1 -186076371#0"/>
	</vehicle>
	<vehicle id="t93" depart="0" departLane="best" departPos="random_free">
		<route edges="206346809#1 -206346809#1 161809364 185948989 -161687499#1"/>
	</vehicle>
	<vehicle id="t94" depart="0" departLane="best" departPos="random_free">
		<route edges="185949000#0 185949000#1"/>
	</vehicle>
	<vehicle id="t95" depart="0" departLane="best" departPos="random_free">
		<route edges="-161687499#2 161687499#2 190478684#1 190478684#2 190478684#3 186076402"/>
	</vehicle>
	<vehicle id="t96" depart="0" departLane="best" departPos="random_free">
		<route edges="161687499#1 161687499#2 190478684#1 190478684#2 190478684#3 186076402"/>
	</vehicle>
	<vehicle id="t97" depart="0" departLane="best" departPos="random_free">
		<route edges="190478684#0 -161687499#2 -161687499#1"/>
	</vehicle>
	<vehicle id="t98" depart="0" departLane="best" departPos="random_free">
		<route edges="190478684#1 190478684#2 186076371#1 172603544#2 185948992#0 185948992#1 186076403#0 186076403#1 186076403#2 186076403#3 185949000#0"/>
	</vehicle>
	<vehicle id="t99" depart="0" departLane="best" departPos="random_free">
		<route edges="161809364 185948989 161687499#2 190478684#1 206346809#0 206346809#1"/>
	</vehicle>
	<vehicle id="t100" depart="0" departLane="best" departPos="random_free">
		<route edges="161687525 190478684#2 -186076371#0 186076371#0"/>
	</vehicle>
	<vehicle id="t101" depart="0" departLane="best" departPos="random_free">
		<route edges="190478684#2 186076371#1 172603544#2 185948992#0 185948992#1 185948996#0"/>
	</vehicle>
	<vehicle id="t102" depart="0" departLane="best" departPos="random_free">
		<route edges="-190478684#1 -190478684#0"/>
	</vehicle>
	<vehicle id="t103" depart="0" departLane="best" departPos="random_free">
		<route edges="-185948996#1 -185948996#0 -185948992#1 -185948992#0 -172603544#2 -172603544#1 -206346809#0"/>
	</vehicle>
	<vehicle id="t104" depart="0" departLane="best" departPos="random_free">
		<route edges="-186076371#1 186076371#1 172603544#2 185948992#0 185948992#1 186076403#0 186076403#1 186076403#2 186076403#3"/>
	</vehicle>
	<vehicle id="t105" depart="0" departLane="best" departPos="random_free">
		<route edges="186076371#0 186076371#1 186076371#2 186076371#3 -186076371#3"/>
	</vehicle>
	<vehicle id="t106" depart="0" departLane="best" departPos="random_free">
		<route edges="-186076371#1 190478684#3"/>
	</vehicle>
	<vehicle id="t107" depart="0" departLane="best" departPos="random_free">
		<route edges="-206346809#1 -206346809#0 -161687525 161687525"/>
	</vehicle>
	<vehicle id="t108" depart="0" departLane="best" departPos="random_free">
		<route edges="-190478684#2 190478684#2 186076371#1 186076371#2 186076371#3 186076371#4 -186076371#4"/>
	</vehicle>
	<vehicle id="t109" depart="0" departLane="best" departPos="random_free">
		<route edges="-186076371#0 186076371#0 186076371#1 -172603544#1 206346809#1"/>
	</vehicle>
	<vehicle id="t110" depart="0" departLane="best" departPos="random_free">
		<route edges="-161687499#1 161687499#1 161687499#2 190478684#1 190478684#2 190478684#3 -190478684#3"/>
	</vehicle>
	<vehicle id="t111" depart="0" departLane="best" departPos="random_free">
		<route edges="186076403#1 186076403#2 186076403#3 185949000#0 -186076371#4 -186076371#3 -186076371#2 -172603544#1"/>
	</vehicle>
	<vehicle id="t112" depart="0" departLane="best" departPos="random_free">
		<route edges="185949000#1 -206346809#1 172603544#1 172603544#2 185948992#0 185948992#1 186076403#0 186076403#1"/>
	</vehicle>
	<vehicle id="t113" depart="0" departLane="best" departPos="random_free">
		<route edges="-161687499#2 161687499#2 190478684#1 190478684#2 186076371#1 172603544#2 185948992#0 185948992#1 185948996#0"/>
	</vehicle>
	<vehicle id="t114" depart="0" departLane="best" departPos="random_free">
		<route edges="186076371#1 172603544#2 185948992#0 185948992#1 185948996#0 185948996#1 -185948996#1"/>
	</vehicle>
	<vehicle id="t115" depart="0" departLane="best" departPos="random_free">
		<route edges="185949000#0 185949000#1 -206346809#1"/>
	</vehicle>
	<vehicle id="t116" depart="0" departLane="best" departPos="random_free">
		<route edges="172603544#0 161809364 185948989 161687499#2 -161687499#2"/>
	</vehicle>
	<vehicle id="t117" depart="0" departLane="best" departPos="random_free">
		<route edges="206346809#1 -206346809#1 172603544#1 -186076371#1 190478684#3"/>
	</vehicle>
	<vehicle id="t118" depart="0" departLane="best" departPos="random_free">
		<route edges="186076371#0 186076371#1 -172603544#1 172603544#1"/>
	</vehicle>
	<vehicle id="t119" depart="0" departLane="best" departPos="random_free">
		<route edges="186076371#0 186076371#1 186076371#2 186076371#3 186076371#4 185949000#1"/>
	</vehicle>
	<vehicle id="t120" depart="0" departLane="best" departPos="random_free">
		<route edges="186076403#3 185949000#0 -186076371#4 -186076371#3 -186076371#2 172603544#2 -172603544#2"/>
	</vehicle>
	<vehicle id="t121" depart="0" departLane="best" departPos="random_free">
		<route edges="206346809#1 -206346809#1 161809364 185948989 -161687499#1"/>
	</vehicle>
	<vehicle id="t122" depart="0" departLane="best" departPos="random_free">
		<route edges="206346809#1 -206346809#1 161809364 185948989 161687499#2 -190478684#0 190478684#0"/>
	</vehicle>
	<vehicle id="t123" depart="0" departLane="best" departPos="random_free">
		<route edges="190478684#2 190478684#3"/>
	</vehicle>
	<vehicle id="t124" depart="0" departLane="best" departPos="random_free">
		<route edges="-206346809#1 172603544#1 -186076371#1 190478684#3"/>
	</vehicle>
	<vehicle id="t125" depart="0" departLane="best" departPos="random_free">
		<route edges="-190478684#3 186076371#1 -172603544#1 172603544#1"/>
	</vehicle>
	<vehicle id="t126" depart="0" departLane="best" departPos="random_free">
		<route edges="-186076371#0 186076371#0 186076371#1 172603544#2 185948992#0 185948992#1 185948996#0 185948996#1"/>
	</vehicle>
	<vehicle id="t127" depart="0" departLane="best" departPos="random_free">
		<route edges="-161687499#1 161687499#1 161687499#2 190478684#1 206346809#0 -206346809#0"/>
	</vehicle>
	<vehicle id="t128" depart="0" departLane="best" departPos="random_free">
		<route edges="161687499#1 161687499#2 -190478684#0"/>
	</vehicle>
	<vehicle id="t129" depart="0" departLane="best" departPos="random_free">
		<route edges="161687499#1 161687499#2 190478684#1 190478684#2 186076371#1 -186076371#1"/>
	</vehicle>
	<vehicle id="t130" depart="0" departLane="best" departPos="random_free">
		<route edges="-172603544#1 172603544#1 -186076371#1 -186076371#0 186076371#0"/>
	</vehicle>
	<vehicle id="t131" depart="0" departLane="best" departPos="random_free">
		<route edges="206346809#1 -206346809#1 172603544#1 -186076371#1 190478684#3"/>
	</vehicle>
	<vehicle id="t132" depart="0" departLane="best" departPos="random_free">
		<route edges="161687525 190478684#2 186076371#1 186076371#2 186076371#3 186076371#4 185949000#1"/>
	</vehicle>
	<vehicle id="t133" depart="0" departLane="best" departPos="random_free">
		<route edges="-186076371#1 186076371#1 172603544#2 185948992#0 185948992#1 -185948992#1"/>
	</vehicle>
	<vehicle id="t134" depart="0" departLane="best" departPos="random_free">
		<route edges="-172603544#0 172603544#0 172603544#1"/>
	</vehicle>
	<vehicle id="t135" depart="0" departLane="best" departPos="random_free">
		<route edges="190478684#1 206346809#0 206346809#1"/>
	</vehicle>
	<vehicle id="t136" depart="0" departLane="best" departPos="random_free">
		<route edges="161809364 185948989 161687499#2 190478684#1 190478684#2 -186076371#0"/>
	</vehicle>
	<vehicle id="t137" depart="0" departLane="best" departPos="random_free">
		<route edges="-172603544#1 -206346809#0 -161687525 161687525"/>
	</vehicle>
	<vehicle id="t138" depart="0" departLane="best" departPos="random_free">
		<route edges="-161687525 161687525 -190478684#1 -161687499#2 -161687499#1"/>
	</vehicle>
	<vehicle id="t139" depart="0" departLane="best" departPos="random_free">
		<route edges="-206346809#0 190478684#2 186076371#1 172603544#2 185948992#0 185948992#1 185948996#0 -185948996#0"/>
	</vehicle>
	<vehicle id="t140" depart="0" departLane="best" departPos="random_free">
		<route edges="185948996#0 -185948996#0 -185948992#1 -185948992#0 -172603544#2 -172603544#1 206346809#1"/>
	</vehicle>
	<vehicle id="t141" depart="0" departLane="best" departPos="random_free">
		<route edges="206346809#1 -206346809#1 172603544#1 -186076371#1 -190478684#2"/>
	</vehicle>
	<vehicle id="t142" depart="0" departLane="best" departPos="random_free">
		<route edges="185949000#1 -206346809#1 161809364 185948989 161687499#2"/>
	</vehicle>
	<vehicle id="t143" depart="0" departLane="best" departPos="random_free">
		<route edges="-190478684#2 -190478684#1"/>
	</vehicle>
	<vehicle id="t144" depart="0" departLane="best" departPos="random_free">
		<route edges="-190478684#0 190478684#0 190478684#1 190478684#2 186076371#1 172603544#2 185948992#0 185948992#1 186076403#0 186076403#1"/>
	</vehicle>
	<vehicle id="t145" depart="0" departLane="best" departPos="random_free">
		<route edges="190478684#2 186076371#1 172603544#2"/>
	</vehicle>
	<vehicle id="t146" depart="0" departLane="best" departPos="random_free">
		<route edges="161687499#1 161687499#2 190478684#1 206346809#0"/>
	</vehicle>
	<vehicle id="t147" depart="0" departLane="best" departPos="random_free">
		<route edges="-206346809#1 206346809#1"/>
	</vehicle>
	<vehicle id="t148" depart="0" departLane="best" departPos="random_free">
		<route edges="-161687499#2"/>
	</vehicle>
	<vehicle id="t149" depart="0" departLane="best" departPos="random_free">
		<route edges="-172603544#1 172603544#1 -186076371#1 -186076371#0 186076371#0"/>
	</vehicle>
	<vehicle id="t150" depart="0" departLane="best" departPos="random_free">
		<route edges="-161687499#2 161687499#2 190478684#1 190478684#2 186076371#1 172603544#2 185948992#0 185948992#1 -185948992#1"/>
	</vehicle>
	<vehicle id="t151" depart="0" departLane="best" departPos="random_free">
		<route edges="-186076371#1 190478684#3 186076402"/>
	</vehicle>
	<vehicle id="t152" depart="0" departLane="best" departPos="random_free">
		<route edges="-161687525 161687525"/>
	</vehicle>
	<vehicle id="t153" depart="0" departLane="best" departPos="random_free">
		<route edges="161687499#1 161687499#2 -161687499#2"/>
	</vehicle>
	<vehicle id="t154" depart="0" departLane="best" departPos="random_free">
		<route edges="-172603544#2 -186076371#1 186076371#1"/>
	</vehicle>
	<vehicle id="t155" depart="0" departLane="best" departPos="random_free">
		<route edges="172603544#1 -172603544#1 161809364 185948989 161687499#2 -190478684#0 190478684#0"/>
	</vehicle>
	<vehicle id="t156" depart="0" departLane="best" departPos="random_free">
		<route edges="190478684#2 186076371#1 172603544#2 185948992#0 185948992#1 186076403#0 186076403#1 186076403#2 186076403#3"/>
	</vehicle>
	<vehicle id="t157" depart="0" departLane="best" departPos="random_free">
		<route edges="186076371#0 186076371#1 172603544#2 185948992#0 185948992#1 186076403#0 186076403#1 186076403#2 186076403#3 185949000#0"/>
	</vehicle>
	<vehicle id="t158" depart="0" departLane="best" departPos="random_free">
		<route edges="161809364 185948989 161687499#2 190478684#1 206346809#0 -172603544#0"/>
	</vehicle>
	<vehicle id="t159" depart="0" departLane="best" departPos="random_free">
		<route edges="161687525 190478684#2 186076371#1 172603544#2 185948992#0 185948992#1 186076403#0 186076403#1 186076403#2 186076403#3 185949000#0"/>
	</vehicle>
	<vehicle id="t160" depart="0" departLane="best" departPos="random_free">
		<route edges="185948989 161687499#2 190478684#1 190478684#2 186076371#1 -186076371#1"/>
	</vehicle>
	<vehicle id="t161" depart="0" departLane="best" departPos="random_free">
		<route edges="-186076371#1 186076371#1"/>
	</vehicle>
	<vehicle id="t162" depart="0" departLane="best" departPos="random_free">
		<route edges="186076371#3 -186076371#3"/>
	</vehicle>
	<vehicle id="t163" depart="0" departLane="best" departPos="random_free">
		<route edges="161687525 -190478684#1 -161687499#2 161687499#2"/>
	</vehicle>
	<vehicle id="t164" depart="0" departLane="best" departPos="random_free">
		<route edges="206346809#0 172603544#1 -186076371#1 190478684#3 186076402"/>
	</vehicle>
	<vehicle id="t165" depart="0" departLane="best" departPos="random_free">
		<route edges="206346809#1 -206346809#1 172603544#1 172603544#2 185948992#0 -185948992#0"/>
	</vehicle>
	<vehicle id="t166" depart="0" departLane="best" departPos="random_free">
		<route edges="186076371#4 185949000#1 -206346809#1 161809364 185948989 161687499#2 -161687499#2"/>
	</vehicle>
	<vehicle id="t167" depart="0" departLane="best" departPos="random_free">
		<route edges="190478684#0 190478684#1 190478684#2 190478684#3"/>
	</vehicle>
	<vehicle id="t168" depart="0" departLane="best" departPos="random_free">
		<route edges="-185948992#1 -185948992#0 -172603544#2 -172603544#1 161809364 185948989 -161687499#1"/>
	</vehicle>
	<vehicle id="t169" depart="0" departLane="best" departPos="random_free">
		<route edges="190478684#3 -190478684#3 186076371#1 -172603544#1 -206346809#0"/>
	</vehicle>
	<vehicle id="t170" depart="0" departLane="best" departPos="random_free">
		<route edges="161687499#2 190478684#1 190478684#2 190478684#3 -190478684#3"/>
	</vehicle>
	<vehicle id="t171" depart="0" departLane="best" departPos="random_free">
		<route edges="-186076371#0 186076371#0 186076371#1 -186076371#1"/>
	</vehicle>
	<vehicle id="t172" depart="0" departLane="best" departPos="random_free">
		<route edges="-206346809#0 190478684#2 186076371#1 -186076371#1"/>
	</vehicle>
	<vehicle id="t173" depart="0" departLane="best" departPos="random_free">
		<route edges="186076403#1 186076403#2 186076403#3 185949000#0 185949000#1 -206346809#1 161809364 185948989 161687499#2 -190478684#0 190478684#0"/>
	</vehicle>
	<vehicle id="t174" depart="0" departLane="best" departPos="random_free">
		<route edges="185949000#1 -206346809#1 -206346809#0"/>
	</vehicle>
	<vehicle id="t175" depart="0" departLane="best" departPos="random_free">
		<route edges="186076403#1 186076403#2 186076403#3 185949000#0 -186076371#4 -186076371#3 -186076371#2 172603544#2 -172603544#2"/>
	</vehicle>
	<vehicle id="t176" depart="0" departLane="best" departPos="random_free">
		<route edges="-190478684#2 -161687525 161687525"/>
	</vehicle>
	<vehicle id="t177" depart="0" departLane="best" departPos="random_free">
		<route edges="-186076371#1 190478684#3 186076402"/>
	</vehicle>
	<vehicle id="t178" depart="0" departLane="best" departPos="random_free">