<?xml version="1.0" encoding="UTF-8" standalone="yes"?>
<routes>
   <vehicle id="t0" depart="0" departLane="best" departPos="random_free">
      <route edges="190478684#2 -190478684#2 -190478684#1 -161687499#2 161687499#2"/>
   </vehicle>
   <vehicle id="t1" depart="0" departLane="best" departPos="random_free">
      <route edges="186076371#3 -186076371#3 -186076371#2 -186076371#1"/>
   </vehicle>
   <vehicle id="t2" depart="0" departLane="best" departPos="random_free">
      <route edges="161687499#1 161687499#2 190478684#1"/>
   </vehicle>
   <vehicle id="t3" depart="0" departLane="best" departPos="random_free">
      <route edges="-185948996#1 -185948996#0 -185948992#1 -185948992#0 -172603544#2 -186076371#1 -190478684#2 -161687525"/>
   </vehicle>
   <vehicle id="t4" depart="0" departLane="best" departPos="random_free">
      <route edges="185948989 161687499#2 -190478684#0 190478684#0"/>
   </vehicle>
   <vehicle id="t5" depart="0" departLane="best" departPos="random_free">
      <route edges="-161687499#2 161687499#2 -190478684#0"/>
   </vehicle>
   <vehicle id="t6" depart="0" departLane="best" departPos="random_free">
      <route edges="190478684#3 -190478684#3 186076371#1 186076371#2 186076371#3 186076371#4"/>
   </vehicle>
   <vehicle id="t7" depart="0" departLane="best" departPos="random_free">
      <route edges="186076403#1 186076403#2 186076403#3 185949000#0 -186076371#4 -186076371#3 -186076371#2 -186076371#1 -190478684#2"/>
   </vehicle>
   <vehicle id="t8" depart="0" departLane="best" departPos="random_free">
      <route edges="185949000#1 -206346809#1 -206346809#0"/>
   </vehicle>
   <vehicle id="t9" depart="0" departLane="best" departPos="random_free">
      <route edges="172603544#0 172603544#1 -186076371#1 -190478684#2"/>
   </vehicle>
   <vehicle id="t10" depart="0" departLane="best" departPos="random_free">
      <route edges="190478684#1 190478684#2 -190478684#2"/>
   </vehicle>
   <vehicle id="t11" depart="0" departLane="best" departPos="random_free">
      <route edges="186076403#1 186076403#2 186076403#3 185949000#0 185949000#1 -206346809#1 161809364 185948989 161687499#2 -190478684#0"/>
   </vehicle>
   <vehicle id="t12" depart="0" departLane="best" departPos="random_free">
      <route edges="-172603544#1 206346809#1 -206346809#1"/>
   </vehicle>
   <vehicle id="t13" depart="0" departLane="best" departPos="random_free">
      <route edges="186076403#1 186076403#2 186076403#3 185949000#0 185949000#1 -206346809#1 -206346809#0 206346809#0"/>
   </vehicle>
   <vehicle id="t14" depart="0" departLane="best" departPos="random_free">
      <route edges="-161687525 161687525 190478684#2 186076371#1 172603544#2 185948992#0 185948992#1 186076403#0 186076403#1 186076403#2 186076403#3"/>
   </vehicle>
   <vehicle id="t15" depart="0" departLane="best" departPos="random_free">
      <route edges="-186076371#3 -186076371#2 172603544#2 185948992#0 185948992#1 -185948992#1"/>
   </vehicle>
   <vehicle id="t16" depart="0" departLane="best" departPos="random_free">
      <route edges="-190478684#2 190478684#2 186076371#1 172603544#2"/>
   </vehicle>
   <vehicle id="t17" depart="0" departLane="best" departPos="random_free">
      <route edges="-161687525 161687525"/>
   </vehicle>
   <vehicle id="t18" depart="0" departLane="best" departPos="random_free">
      <route edges="-186076371#4 -186076371#3 -186076371#2 -172603544#1"/>
   </vehicle>
   <vehicle id="t19" depart="0" departLane="best" departPos="random_free">
      <route edges="-185948996#1 -185948996#0 -185948992#1 -185948992#0 -172603544#2 -186076371#1 186076371#1"/>
   </vehicle>
   <vehicle id="t20" depart="0" departLane="best" departPos="random_free">
      <route edges="186076371#0 190478684#3 -190478684#3"/>
   </vehicle>
   <vehicle id="t21" depart="0" departLane="best" departPos="random_free">
      <route edges="186076371#0 186076371#1"/>
   </vehicle>
   <vehicle id="t22" depart="0" departLane="best" departPos="random_free">
      <route edges="161687499#1 161687499#2 190478684#1"/>
   </vehicle>
   <vehicle id="t23" depart="0" departLane="best" departPos="random_free">
      <route edges="-190478684#1 190478684#1 190478684#2 -186076371#0"/>
   </vehicle>
   <vehicle id="t24" depart="0" departLane="best" departPos="random_free">
      <route edges="206346809#0 172603544#1 -186076371#1 190478684#3 186076402"/>
   </vehicle>
   <vehicle id="t25" depart="0" departLane="best" departPos="random_free">
      <route edges="186076371#0 186076371#1 172603544#2 185948992#0 185948992#1 185948996#0"/>
   </vehicle>
   <vehicle id="t26" depart="0" departLane="best" departPos="random_free">
      <route edges="206346809#1 -206346809#1 172603544#1 186076371#2 186076371#3 186076371#4 -186076371#4"/>
   </vehicle>
   <vehicle id="t27" depart="0" departLane="best" departPos="random_free">
      <route edges="186076371#1 -186076371#1 -186076371#0 186076371#0"/>
   </vehicle>
   <vehicle id="t28" depart="0" departLane="best" departPos="random_free">
      <route edges="-185948996#1 -185948996#0 -185948992#1 -185948992#0 -172603544#2 -186076371#1 -186076371#0 186076371#0"/>
   </vehicle>
   <vehicle id="t29" depart="0" departLane="best" departPos="random_free">
      <route edges="-185948996#0 -185948992#1 -185948992#0 -172603544#2 -172603544#1 -206346809#0"/>
   </vehicle>
   <vehicle id="t30" depart="0" departLane="best" departPos="random_free">
      <route edges="-185948996#1 -185948996#0 -185948992#1 -185948992#0 -172603544#2 -186076371#1 190478684#3 186076402"/>
   </vehicle>
   <vehicle id="t31" depart="0" departLane="best" departPos="random_free">
      <route edges="186076403#2 186076403#3 185949000#0 -186076371#4 -186076371#3 -186076371#2 172603544#2 185948992#0 185948992#1 185948996#0 185948996#1"/>
   </vehicle>
   <vehicle id="t32" depart="0" departLane="best" departPos="random_free">
      <route edges="161687499#1 161687499#2 190478684#1 206346809#0 -172603544#0"/>
   </vehicle>
   <vehicle id="t33" depart="0" departLane="best" departPos="random_free">
      <route edges="-186076371#0"/>
   </vehicle>
   <vehicle id="t34" depart="0" departLane="best" departPos="random_free">
      <route edges="-161687525"/>
   </vehicle>
   <vehicle id="t35" depart="0" departLane="best" departPos="random_free">
      <route edges="186076402 -185948992#1 -185948992#0 -172603544#2 -186076371#1 -190478684#2 206346809#0"/>
   </vehicle>
   <vehicle id="t36" depart="0" departLane="best" departPos="random_free">
      <route edges="-206346809#1 -206346809#0 -161687525 161687525"/>
   </vehicle>
   <vehicle id="t37" depart="0" departLane="best" departPos="random_free">
      <route edges="-161687499#2 161687499#2 190478684#1 -161687525"/>
   </vehicle>
   <vehicle id="t38" depart="0" departLane="best" departPos="random_free">
      <route edges="-190478684#0 190478684#0 190478684#1 -161687525 161687525"/>
   </vehicle>
   <vehicle id="t39" depart="0" departLane="best" departPos="random_free">
      <route edges="161687525 -190478684#1 -161687499#2 -161687499#1 161687499#1"/>
   </vehicle>
   <vehicle id="t40" depart="0" departLane="best" departPos="random_free">
      <route edges="-186076371#1 -190478684#2 -190478684#1 -161687499#2 -161687499#1"/>
   </vehicle>
   <vehicle id="t41" depart="0" departLane="best" departPos="random_free">
      <route edges="-186076371#1 -190478684#2 -190478684#1 -161687499#2 -161687499#1"/>
   </vehicle>
   <vehicle id="t42" depart="0" departLane="best" departPos="random_free">
      <route edges="-161687499#2 161687499#2 190478684#1"/>
   </vehicle>
   <vehicle id="t43" depart="0" departLane="best" departPos="random_free">
      <route edges="-206346809#0 190478684#2 186076371#1 172603544#2 185948992#0 185948992#1 186076403#0 186076403#1"/>
   </vehicle>
   <vehicle id="t44" depart="0" departLane="best" departPos="random_free">
      <route edges="190478684#0 -161687499#2"/>
   </vehicle>
   <vehicle id="t45" depart="0" departLane="best" departPos="random_free">
      <route edges="-186076371#0 186076371#0 186076371#1 172603544#2 185948992#0 185948992#1"/>
   </vehicle>
   <vehicle id="t46" depart="0" departLane="best" departPos="random_free">
      <route edges="-206346809#1 172603544#1 172603544#2 185948992#0 185948992#1 -185948992#1"/>
   </vehicle>
   <vehicle id="t47" depart="0" departLane="best" departPos="random_free">
      <route edges="-186076371#0 186076371#0 186076371#1 186076371#2 186076371#3"/>
   </vehicle>
   <vehicle id="t48" depart="0" departLane="best" departPos="random_free">
      <route edges="161687499#1 161687499#2 190478684#1 -161687525 161687525"/>
   </vehicle>
   <vehicle id="t49" depart="0" departLane="best" departPos="random_free">
      <route edges="186076403#0 186076403#1 186076403#2 186076403#3 185949000#0 185949000#1 -206346809#1 172603544#1"/>
   </vehicle>
   <vehicle id="t50" depart="0" departLane="best" departPos="random_free">
      <route edges="190478684#1 206346809#0 172603544#1"/>
   </vehicle>

</routes>