[General]
cmdenv-express-mode = true
cmdenv-autoflush = true
cmdenv-status-frequency = 10000000s

#tkenv-default-config = debug
#tkenv-default-run = 1
tkenv-image-path = bitmaps
ned-path = .

network = DMMACScenarioShort

##########################################################
#            Simulation parameters                       #
##########################################################
debug-on-errors = false
print-undisposed = false

sim-time-limit = 60s

seed-set = 255

**.scalar-recording = false
**.vector-recording = false

**.debug = false
**.coreDebug = false

*.playgroundSizeX = 220m
*.playgroundSizeY = 50m
*.playgroundSizeZ = 50m


##########################################################
# Annotation parameters                                  #
##########################################################
*.annotations.draw = false

##########################################################
# Obstacle parameters                                    #
##########################################################
*.obstacles.debug = false

##########################################################
#            WorldUtility parameters                     #
##########################################################
*.world.useTorus = false
*.world.use2D = false

##########################################################
#            TraCIScenarioManager parameters             #
##########################################################
*.manager.updateInterval = 0.1s
*.manager.host = "localhost"
*.manager.port = 9999
*.manager.moduleType = "org.car2x.veins.nodes.Car"
*.manager.moduleName = "node"
*.manager.moduleDisplayString = ""
*.manager.autoShutdown = true
*.manager.margin = 25
*.manager.launchConfig = xmldoc("short.launchd.xml")

# SCMAC
*.manager.numVehicles = 100

##########################################################
#                       RSU SETTINGS                     #
#                                                        #
#                                                        #
##########################################################
#*.rsu[0].mobility.x = 300
#*.rsu[0].mobility.y = 200
#*.rsu[0].mobility.z = 3
#*.rsu[*].applType = "CMacRSUAppl11p"
#*.rsu[*].appl.debug = false
#*.rsu[*].appl.headerLength = 256 bit
#*.rsu[*].appl.sendBeacons = false
#*.rsu[*].appl.dataOnSch = false
#*.rsu[*].appl.sendData = true
#*.rsu[*].appl.beaconInterval = 1s
#*.rsu[*].appl.beaconPriority = 3
#*.rsu[*].appl.dataPriority = 2
#*.rsu[*].appl.maxOffset = 0.005s

##########################################################
#            11p specific parameters                     #
#                                                        #
#                    NIC-Settings                        #
##########################################################
*.connectionManager.pMax = 10mW
#*.connectionManager.pMax = 0.5mW
*.connectionManager.sat = -89dBm
*.connectionManager.alpha = 2.0
*.connectionManager.carrierFrequency = 5.890e9 Hz
*.connectionManager.sendDirect = true

*.**.nic.mac1609_4.useServiceChannel = true

*.**.nic.mac1609_4.txPower = 10mW
#*.**.nic.mac1609_4.txPower = 0.5mW
*.**.nic.mac1609_4.bitrate = 6Mbps

*.**.nic.phy80211p.sensitivity = -89dBm
*.**.nic.phy80211p.maxTXPower = 5mW
*.**.nic.phy80211p.useThermalNoise = true
*.**.nic.phy80211p.thermalNoise = -110dBm
*.**.nic.phy80211p.decider = xmldoc("config.xml")
*.**.nic.phy80211p.analogueModels = xmldoc("config.xml")
*.**.nic.phy80211p.usePropagationDelay = true

#*.node[*].nicType = "CMacNic80211p"
*.node[*].nicType = "DMMacNic80211p"
#*.node[*].nicType = "WaveNic80211p"

##########################################################
#                    WaveAppLayer                        #
##########################################################
*.node[*].applType = "CMACApp11p"
*.node[*].appl.debug = false
*.node[*].appl.headerLength = 256 bit
*.node[*].appl.sendBeacons = false
*.node[*].appl.dataOnSch = false
*.node[*].appl.sendData = false
*.node[*].appl.beaconInterval = 1s
*.node[*].appl.beaconPriority = 3
*.node[*].appl.dataPriority = 3
*.node[*].appl.maxOffset = 0.005s

*.node[*].appl.sendPkt = false
*.node[*].appl.sendEmgPkt = true
*.node[*].appl.pktSendEndTime = 29

##########################################################
#                      Mobility                          #
##########################################################
*.node[*].veinsmobilityType = "org.car2x.veins.modules.mobility.traci.TraCIMobility"
*.node[*].mobilityType = "TraCIMobility"
*.node[*].mobilityType.debug = true
*.node[*].veinsmobilityType.debug = true
*.node[*].veinsmobility.x = 0
*.node[*].veinsmobility.y = 0
*.node[*].veinsmobility.z = 1.895
*.node[*0].veinsmobility.accidentCount = 0
*.node[*0].veinsmobility.accidentStart = 75s
*.node[*0].veinsmobility.accidentDuration = 30s

[Config nodebug]
description = "default settings"
**.debug = false
**.coreDebug = false
*.annotations.draw = false
# Chris

[Config debug]
description = "(very slow!) draw and print additional debug information"
**.debug = true
**.coreDebug = true
*.annotations.draw = true

[Config Density_05]
*.manager.launchConfig = xmldoc("expressway.05.launchd.xml")
*.manager.numVehicles = 20
repeat=10
*.manager.seed = ${repetition}

[Config Density_10]
*.manager.launchConfig = xmldoc("expressway.10.launchd.xml")
*.manager.numVehicles = 34
repeat=10
*.manager.seed = ${repetition}

[Config Density_15]
*.manager.launchConfig = xmldoc("expressway.15.launchd.xml")
*.manager.numVehicles = 48
repeat=10
*.manager.seed = ${repetition}

[Config Density_20]
*.manager.launchConfig = xmldoc("expressway.20.launchd.xml")
*.manager.numVehicles = 62
repeat=10
*.manager.seed = ${repetition}

[Config Density_25]
*.manager.launchConfig = xmldoc("expressway.25.launchd.xml")
*.manager.numVehicles = 76
repeat=10
*.manager.seed = ${repetition}

[Config Density_30]
*.manager.launchConfig = xmldoc("expressway.30.launchd.xml")
*.manager.numVehicles = 90
repeat=10
*.manager.seed = ${repetition}

[Config Density_35]
*.manager.launchConfig = xmldoc("expressway.35.launchd.xml")
*.manager.numVehicles = 104
repeat=10
*.manager.seed = ${repetition}

[Config Density_40]
*.manager.launchConfig = xmldoc("expressway.40.launchd.xml")
*.manager.numVehicles = 119
repeat=10
*.manager.seed = ${repetition}

[Config Density_45]
*.manager.launchConfig = xmldoc("expressway.45.launchd.xml")
*.manager.numVehicles = 133
repeat=10
*.manager.seed = ${repetition}

[Config Density_50]
*.manager.launchConfig = xmldoc("expressway.50.launchd.xml")
*.manager.numVehicles = 147
repeat=10
*.manager.seed = ${repetition}

[Config Density_55]
*.manager.launchConfig = xmldoc("expressway.55.launchd.xml")
*.manager.numVehicles = 161
repeat=10
*.manager.seed = ${repetition}

[Config Density_60]
*.manager.launchConfig = xmldoc("expressway.60.launchd.xml")
*.manager.numVehicles = 175
repeat=10
*.manager.seed = ${repetition}