<?xml version="1.0" encoding="UTF-8"?>

<!-- generated on Mon Feb 13 21:28:16 2017 by SUMO netgenerate Version 0.22.0D
<?xml version="1.0" encoding="UTF-8"?>

<configuration xmlns:xsi="http://www.w3.org/2001/XMLSchema-instance" xsi:noNamespaceSchemaLocation="http://sumo.dlr.de/xsd/netgenerateConfiguration.xsd">

    <grid_network>
        <grid value="true"/>
        <grid.number value="2"/>
        <grid.x-length value="200"/>
        <grid.y-length value="40"/>
    </grid_network>

    <output>
        <output-file value="net.net.xml"/>
    </output>

    <tls_building>
        <tls.guess value="true"/>
    </tls_building>

    <building_defaults>
        <default.lanenumber value="3"/>
        <default.speed value="33.33"/>
    </building_defaults>

</configuration>
-->

<net version="0.13" xmlns:xsi="http://www.w3.org/2001/XMLSchema-instance" xsi:noNamespaceSchemaLocation="http://sumo.dlr.de/xsd/net_file.xsd">

    <location netOffset="0.00,0.00" convBoundary="0.00,0.00,200.00,40.00" origBoundary="0.00,0.00,200.00,40.00" projParameter="!"/>

    <edge id=":0/0_0" function="internal">
        <lane id=":0/0_0_0" index="0" speed="33.33" length="23.87" shape="-8.25,9.85 -7.12,1.93 -3.73,-3.73 1.93,-7.12 9.85,-8.25"/>
        <lane id=":0/0_0_1" index="1" speed="33.33" length="23.87" shape="-4.95,9.85 -4.03,3.38 -1.25,-1.25 3.37,-4.03 9.85,-4.95"/>
        <lane id=":0/0_0_2" index="2" speed="33.33" length="23.87" shape="-1.65,9.85 -0.93,4.82 1.22,1.23 4.82,-0.93 9.85,-1.65"/>
    </edge>
    <edge id=":0/0_3" function="internal">
        <lane id=":0/0_3_0" index="0" speed="33.33" length="2.41" shape="-1.65,9.85 -0.82,8.61 0.00,8.20"/>
    </edge>
    <edge id=":0/0_8" function="internal">
        <lane id=":0/0_8_0" index="0" speed="33.33" length="2.41" shape="0.00,8.20 0.83,8.61 1.65,9.85"/>
    </edge>
    <edge id=":0/0_4" function="internal">
        <lane id=":0/0_4_0" index="0" speed="33.33" length="7.90" shape="9.85,8.25 9.15,8.35 8.65,8.65 8.35,9.15 8.25,9.85"/>
        <lane id=":0/0_4_1" index="1" speed="33.33" length="7.90" shape="9.85,4.95 7.71,5.26 6.18,6.18 5.26,7.71 4.95,9.85"/>
        <lane id=":0/0_4_2" index="2" speed="33.33" length="7.90" shape="9.85,1.65 6.26,2.16 3.70,3.70 2.16,6.26 1.65,9.85"/>
    </edge>
    <edge id=":0/0_7" function="internal">
        <lane id=":0/0_7_0" index="0" speed="33.33" length="2.41" shape="9.85,1.65 8.61,0.83 8.20,0.00"/>
    </edge>
    <edge id=":0/0_9" function="internal">
        <lane id=":0/0_9_0" index="0" speed="33.33" length="2.41" shape="8.20,0.00 8.61,-0.82 9.85,-1.65"/>
    </edge>
    <edge id=":0/1_0" function="internal">
        <lane id=":0/1_0_0" index="0" speed="33.33" length="23.87" shape="9.85,48.25 1.93,47.12 -3.73,43.72 -7.12,38.07 -8.25,30.15"/>
        <lane id=":0/1_0_1" index="1" speed="33.33" length="23.87" shape="9.85,44.95 3.38,44.02 -1.25,41.25 -4.02,36.62 -4.95,30.15"/>
        <lane id=":0/1_0_2" index="2" speed="33.33" length="23.87" shape="9.85,41.65 4.82,40.93 1.22,38.77 -0.93,35.18 -1.65,30.15"/>
    </edge>
    <edge id=":0/1_3" function="internal">
        <lane id=":0/1_3_0" index="0" speed="33.33" length="2.41" shape="9.85,41.65 8.61,40.82 8.20,40.00"/>
    </edge>
    <edge id=":0/1_8" function="internal">
        <lane id=":0/1_8_0" index="0" speed="33.33" length="2.41" shape="8.20,40.00 8.61,39.17 9.85,38.35"/>
    </edge>
    <edge id=":0/1_4" function="internal">
        <lane id=":0/1_4_0" index="0" speed="33.33" length="7.90" shape="8.25,30.15 8.35,30.85 8.65,31.35 9.15,31.65 9.85,31.75"/>
        <lane id=":0/1_4_1" index="1" speed="33.33" length="7.90" shape="4.95,30.15 5.26,32.29 6.17,33.83 7.71,34.74 9.85,35.05"/>
        <lane id=":0/1_4_2" index="2" speed="33.33" length="7.90" shape="1.65,30.15 2.16,33.74 3.70,36.30 6.26,37.84 9.85,38.35"/>
    </edge>
    <edge id=":0/1_7" function="internal">
        <lane id=":0/1_7_0" index="0" speed="33.33" length="2.41" shape="1.65,30.15 0.82,31.39 -0.00,31.80"/>
    </edge>
    <edge id=":0/1_9" function="internal">
        <lane id=":0/1_9_0" index="0" speed="33.33" length="2.41" shape="-0.00,31.80 -0.83,31.39 -1.65,30.15"/>
    </edge>
    <edge id=":1/0_0" function="internal">
        <lane id=":1/0_0_0" index="0" speed="33.33" length="7.90" shape="191.75,9.85 191.65,9.15 191.35,8.65 190.85,8.35 190.15,8.25"/>
        <lane id=":1/0_0_1" index="1" speed="33.33" length="7.90" shape="195.05,9.85 194.74,7.71 193.83,6.17 192.29,5.26 190.15,4.95"/>
        <lane id=":1/0_0_2" index="2" speed="33.33" length="7.90" shape="198.35,9.85 197.84,6.26 196.30,3.70 193.74,2.16 190.15,1.65"/>
    </edge>
    <edge id=":1/0_3" function="internal">
        <lane id=":1/0_3_0" index="0" speed="33.33" length="2.41" shape="198.35,9.85 199.17,8.61 200.00,8.20"/>
    </edge>
    <edge id=":1/0_8" function="internal">
        <lane id=":1/0_8_0" index="0" speed="33.33" length="2.41" shape="200.00,8.20 200.82,8.61 201.65,9.85"/>
    </edge>
    <edge id=":1/0_4" function="internal">
        <lane id=":1/0_4_0" index="0" speed="33.33" length="23.87" shape="190.15,-8.25 198.07,-7.12 203.73,-3.73 207.12,1.93 208.25,9.85"/>
        <lane id=":1/0_4_1" index="1" speed="33.33" length="23.87" shape="190.15,-4.95 196.62,-4.03 201.25,-1.25 204.02,3.37 204.95,9.85"/>
        <lane id=":1/0_4_2" index="2" speed="33.33" length="23.87" shape="190.15,-1.65 195.18,-0.93 198.78,1.22 200.93,4.82 201.65,9.85"/>
    </edge>
    <edge id=":1/0_7" function="internal">
        <lane id=":1/0_7_0" index="0" speed="33.33" length="2.41" shape="190.15,-1.65 191.39,-0.83 191.80,-0.00"/>
    </edge>
    <edge id=":1/0_9" function="internal">
        <lane id=":1/0_9_0" index="0" speed="33.33" length="2.41" shape="191.80,-0.00 191.39,0.82 190.15,1.65"/>
    </edge>
    <edge id=":1/1_0" function="internal">
        <lane id=":1/1_0_0" index="0" speed="33.33" length="23.87" shape="208.25,30.15 207.12,38.07 203.72,43.73 198.07,47.12 190.15,48.25"/>
        <lane id=":1/1_0_1" index="1" speed="33.33" length="23.87" shape="204.95,30.15 204.03,36.62 201.25,41.25 196.62,44.03 190.15,44.95"/>
        <lane id=":1/1_0_2" index="2" speed="33.33" length="23.87" shape="201.65,30.15 200.93,35.18 198.78,38.77 195.18,40.93 190.15,41.65"/>
    </edge>
    <edge id=":1/1_3" function="internal">
        <lane id=":1/1_3_0" index="0" speed="33.33" length="2.41" shape="201.65,30.15 200.83,31.39 200.00,31.80"/>
    </edge>
    <edge id=":1/1_8" function="internal">
        <lane id=":1/1_8_0" index="0" speed="33.33" length="2.41" shape="200.00,31.80 199.18,31.39 198.35,30.15"/>
    </edge>
    <edge id=":1/1_4" function="internal">
        <lane id=":1/1_4_0" index="0" speed="33.33" length="7.90" shape="190.15,31.75 190.85,31.65 191.35,31.35 191.65,30.85 191.75,30.15"/>
        <lane id=":1/1_4_1" index="1" speed="33.33" length="7.90" shape="190.15,35.05 192.29,34.74 193.82,33.82 194.74,32.29 195.05,30.15"/>
        <lane id=":1/1_4_2" index="2" speed="33.33" length="7.90" shape="190.15,38.35 193.74,37.84 196.30,36.30 197.84,33.74 198.35,30.15"/>
    </edge>
    <edge id=":1/1_7" function="internal">
        <lane id=":1/1_7_0" index="0" speed="33.33" length="2.41" shape="190.15,38.35 191.39,39.18 191.80,40.00"/>
    </edge>
    <edge id=":1/1_9" function="internal">
        <lane id=":1/1_9_0" index="0" speed="33.33" length="2.41" shape="191.80,40.00 191.39,40.83 190.15,41.65"/>
    </edge>

    <edge id="0/0to0/1" from="0/0" to="0/1" priority="-1">
        <lane id="0/0to0/1_0" index="0" speed="33.33" length="20.30" shape="8.25,9.85 8.25,30.15"/>
        <lane id="0/0to0/1_1" index="1" speed="33.33" length="20.30" shape="4.95,9.85 4.95,30.15"/>
        <lane id="0/0to0/1_2" index="2" speed="33.33" length="20.30" shape="1.65,9.85 1.65,30.15"/>
    </edge>
    <edge id="0/0to1/0" from="0/0" to="1/0" priority="-1">
        <lane id="0/0to1/0_0" index="0" speed="33.33" length="180.30" shape="9.85,-8.25 190.15,-8.25"/>
        <lane id="0/0to1/0_1" index="1" speed="33.33" length="180.30" shape="9.85,-4.95 190.15,-4.95"/>
        <lane id="0/0to1/0_2" index="2" speed="33.33" length="180.30" shape="9.85,-1.65 190.15,-1.65"/>
    </edge>
    <edge id="0/1to0/0" from="0/1" to="0/0" priority="-1">
        <lane id="0/1to0/0_0" index="0" speed="33.33" length="20.30" shape="-8.25,30.15 -8.25,9.85"/>
        <lane id="0/1to0/0_1" index="1" speed="33.33" length="20.30" shape="-4.95,30.15 -4.95,9.85"/>
        <lane id="0/1to0/0_2" index="2" speed="33.33" length="20.30" shape="-1.65,30.15 -1.65,9.85"/>
    </edge>
    <edge id="0/1to1/1" from="0/1" to="1/1" priority="-1">
        <lane id="0/1to1/1_0" index="0" speed="33.33" length="180.30" shape="9.85,31.75 190.15,31.75"/>
        <lane id="0/1to1/1_1" index="1" speed="33.33" length="180.30" shape="9.85,35.05 190.15,35.05"/>
        <lane id="0/1to1/1_2" index="2" speed="33.33" length="180.30" shape="9.85,38.35 190.15,38.35"/>
    </edge>
    <edge id="1/0to0/0" from="1/0" to="0/0" priority="-1">
        <lane id="1/0to0/0_0" index="0" speed="33.33" length="180.30" shape="190.15,8.25 9.85,8.25"/>
        <lane id="1/0to0/0_1" index="1" speed="33.33" length="180.30" shape="190.15,4.95 9.85,4.95"/>
        <lane id="1/0to0/0_2" index="2" speed="33.33" length="180.30" shape="190.15,1.65 9.85,1.65"/>
    </edge>
    <edge id="1/0to1/1" from="1/0" to="1/1" priority="-1">
        <lane id="1/0to1/1_0" index="0" speed="33.33" length="20.30" shape="208.25,9.85 208.25,30.15"/>
        <lane id="1/0to1/1_1" index="1" speed="33.33" length="20.30" shape="204.95,9.85 204.95,30.15"/>
        <lane id="1/0to1/1_2" index="2" speed="33.33" length="20.30" shape="201.65,9.85 201.65,30.15"/>
    </edge>
    <edge id="1/1to0/1" from="1/1" to="0/1" priority="-1">
        <lane id="1/1to0/1_0" index="0" speed="33.33" length="180.30" shape="190.15,48.25 9.85,48.25"/>
        <lane id="1/1to0/1_1" index="1" speed="33.33" length="180.30" shape="190.15,44.95 9.85,44.95"/>
        <lane id="1/1to0/1_2" index="2" speed="33.33" length="180.30" shape="190.15,41.65 9.85,41.65"/>
    </edge>
    <edge id="1/1to1/0" from="1/1" to="1/0" priority="-1">
        <lane id="1/1to1/0_0" index="0" speed="33.33" length="20.30" shape="191.75,30.15 191.75,9.85"/>
        <lane id="1/1to1/0_1" index="1" speed="33.33" length="20.30" shape="195.05,30.15 195.05,9.85"/>
        <lane id="1/1to1/0_2" index="2" speed="33.33" length="20.30" shape="198.35,30.15 198.35,9.85"/>
    </edge>

    <junction id="0/0" type="priority" x="0.00" y="0.00" incLanes="0/1to0/0_0 0/1to0/0_1 0/1to0/0_2 1/0to0/0_0 1/0to0/0_1 1/0to0/0_2" intLanes=":0/0_0_0 :0/0_0_1 :0/0_0_2 :0/0_8_0 :0/0_4_0 :0/0_4_1 :0/0_4_2 :0/0_9_0" shape="-9.85,9.85 9.85,9.85 9.85,-9.85">
        <request index="0" response="00000000" foes="10000000" cont="0"/>
        <request index="1" response="00000000" foes="10000000" cont="0"/>
        <request index="2" response="00000000" foes="10000000" cont="0"/>
        <request index="3" response="01110000" foes="01110000" cont="1"/>
        <request index="4" response="00000000" foes="00001000" cont="0"/>
        <request index="5" response="00000000" foes="00001000" cont="0"/>
        <request index="6" response="00000000" foes="00001000" cont="0"/>
        <request index="7" response="00000111" foes="00000111" cont="1"/>
    </junction>
    <junction id="0/1" type="priority" x="0.00" y="40.00" incLanes="1/1to0/1_0 1/1to0/1_1 1/1to0/1_2 0/0to0/1_0 0/0to0/1_1 0/0to0/1_2" intLanes=":0/1_0_0 :0/1_0_1 :0/1_0_2 :0/1_8_0 :0/1_4_0 :0/1_4_1 :0/1_4_2 :0/1_9_0" shape="9.85,49.85 9.85,30.15 -9.85,30.15">
        <request index="0" response="00000000" foes="10000000" cont="0"/>
        <request index="1" response="00000000" foes="10000000" cont="0"/>
        <request index="2" response="00000000" foes="10000000" cont="0"/>
        <request index="3" response="01110000" foes="01110000" cont="1"/>
        <request index="4" response="00000000" foes="00001000" cont="0"/>
        <request index="5" response="00000000" foes="00001000" cont="0"/>
        <request index="6" response="00000000" foes="00001000" cont="0"/>
        <request index="7" response="00000111" foes="00000111" cont="1"/>
    </junction>
    <junction id="1/0" type="priority" x="200.00" y="0.00" incLanes="1/1to1/0_0 1/1to1/0_1 1/1to1/0_2 0/0to1/0_0 0/0to1/0_1 0/0to1/0_2" intLanes=":1/0_0_0 :1/0_0_1 :1/0_0_2 :1/0_8_0 :1/0_4_0 :1/0_4_1 :1/0_4_2 :1/0_9_0" shape="190.15,9.85 209.85,9.85 190.15,-9.85 190.15,9.85">
        <request index="0" response="00000000" foes="10000000" cont="0"/>
        <request index="1" response="00000000" foes="10000000" cont="0"/>
        <request index="2" response="00000000" foes="10000000" cont="0"/>
        <request index="3" response="01110000" foes="01110000" cont="1"/>
        <request index="4" response="00000000" foes="00001000" cont="0"/>
        <request index="5" response="00000000" foes="00001000" cont="0"/>
        <request index="6" response="00000000" foes="00001000" cont="0"/>
        <request index="7" response="00000111" foes="00000111" cont="1"/>
    </junction>
    <junction id="1/1" type="priority" x="200.00" y="40.00" incLanes="1/0to1/1_0 1/0to1/1_1 1/0to1/1_2 0/1to1/1_0 0/1to1/1_1 0/1to1/1_2" intLanes=":1/1_0_0 :1/1_0_1 :1/1_0_2 :1/1_8_0 :1/1_4_0 :1/1_4_1 :1/1_4_2 :1/1_9_0" shape="209.85,30.15 190.15,30.15 190.15,49.85">
        <request index="0" response="00000000" foes="10000000" cont="0"/>
        <request index="1" response="00000000" foes="10000000" cont="0"/>
        <request index="2" response="00000000" foes="10000000" cont="0"/>
        <request index="3" response="01110000" foes="01110000" cont="1"/>
        <request index="4" response="00000000" foes="00001000" cont="0"/>
        <request index="5" response="00000000" foes="00001000" cont="0"/>
        <request index="6" response="00000000" foes="00001000" cont="0"/>
        <request index="7" response="00000111" foes="00000111" cont="1"/>
    </junction>

    <junction id=":0/0_8_0" type="internal" x="0.00" y="8.20" incLanes=":0/0_3_0 1/0to0/0_0 1/0to0/0_1 1/0to0/0_2" intLanes=":0/0_4_0 :0/0_4_1 :0/0_4_2"/>
    <junction id=":0/0_9_0" type="internal" x="8.20" y="0.00" incLanes=":0/0_7_0 0/1to0/0_0 0/1to0/0_1 0/1to0/0_2" intLanes=":0/0_0_0 :0/0_0_1 :0/0_0_2"/>
    <junction id=":0/1_8_0" type="internal" x="8.20" y="40.00" incLanes=":0/1_3_0 0/0to0/1_0 0/0to0/1_1 0/0to0/1_2" intLanes=":0/1_4_0 :0/1_4_1 :0/1_4_2"/>
    <junction id=":0/1_9_0" type="internal" x="-0.00" y="31.80" incLanes=":0/1_7_0 1/1to0/1_0 1/1to0/1_1 1/1to0/1_2" intLanes=":0/1_0_0 :0/1_0_1 :0/1_0_2"/>
    <junction id=":1/0_8_0" type="internal" x="200.00" y="8.20" incLanes=":1/0_3_0 0/0to1/0_0 0/0to1/0_1 0/0to1/0_2" intLanes=":1/0_4_0 :1/0_4_1 :1/0_4_2"/>
    <junction id=":1/0_9_0" type="internal" x="191.80" y="-0.00" incLanes=":1/0_7_0 1/1to1/0_0 1/1to1/0_1 1/1to1/0_2" intLanes=":1/0_0_0 :1/0_0_1 :1/0_0_2"/>
    <junction id=":1/1_8_0" type="internal" x="200.00" y="31.80" incLanes=":1/1_3_0 0/1to1/1_0 0/1to1/1_1 0/1to1/1_2" intLanes=":1/1_4_0 :1/1_4_1 :1/1_4_2"/>
    <junction id=":1/1_9_0" type="internal" x="191.80" y="40.00" incLanes=":1/1_7_0 1/0to1/1_0 1/0to1/1_1 1/0to1/1_2" intLanes=":1/1_0_0 :1/1_0_1 :1/1_0_2"/>

    <connection from="0/0to0/1" to="0/1to1/1" fromLane="0" toLane="0" via=":0/1_4_0" dir="r" state="M"/>
    <connection from="0/0to0/1" to="0/1to1/1" fromLane="1" toLane="1" via=":0/1_4_1" dir="r" state="M"/>
    <connection from="0/0to0/1" to="0/1to1/1" fromLane="2" toLane="2" via=":0/1_4_2" dir="r" state="M"/>
    <connection from="0/0to0/1" to="0/1to0/0" fromLane="2" toLane="2" via=":0/1_7_0" dir="t" state="m"/>
    <connection from="0/0to1/0" to="1/0to1/1" fromLane="0" toLane="0" via=":1/0_4_0" dir="l" state="M"/>
    <connection from="0/0to1/0" to="1/0to1/1" fromLane="1" toLane="1" via=":1/0_4_1" dir="l" state="M"/>
    <connection from="0/0to1/0" to="1/0to1/1" fromLane="2" toLane="2" via=":1/0_4_2" dir="l" state="M"/>
    <connection from="0/0to1/0" to="1/0to0/0" fromLane="2" toLane="2" via=":1/0_7_0" dir="t" state="m"/>
    <connection from="0/1to0/0" to="0/0to1/0" fromLane="0" toLane="0" via=":0/0_0_0" dir="l" state="M"/>
    <connection from="0/1to0/0" to="0/0to1/0" fromLane="1" toLane="1" via=":0/0_0_1" dir="l" state="M"/>
    <connection from="0/1to0/0" to="0/0to1/0" fromLane="2" toLane="2" via=":0/0_0_2" dir="l" state="M"/>
    <connection from="0/1to0/0" to="0/0to0/1" fromLane="2" toLane="2" via=":0/0_3_0" dir="t" state="m"/>
    <connection from="0/1to1/1" to="1/1to1/0" fromLane="0" toLane="0" via=":1/1_4_0" dir="r" state="M"/>
    <connection from="0/1to1/1" to="1/1to1/0" fromLane="1" toLane="1" via=":1/1_4_1" dir="r" state="M"/>
    <connection from="0/1to1/1" to="1/1to1/0" fromLane="2" toLane="2" via=":1/1_4_2" dir="r" state="M"/>
    <connection from="0/1to1/1" to="1/1to0/1" fromLane="2" toLane="2" via=":1/1_7_0" dir="t" state="m"/>
    <connection from="1/0to0/0" to="0/0to0/1" fromLane="0" toLane="0" via=":0/0_4_0" dir="r" state="M"/>
    <connection from="1/0to0/0" to="0/0to0/1" fromLane="1" toLane="1" via=":0/0_4_1" dir="r" state="M"/>
    <connection from="1/0to0/0" to="0/0to0/1" fromLane="2" toLane="2" via=":0/0_4_2" dir="r" state="M"/>
    <connection from="1/0to0/0" to="0/0to1/0" fromLane="2" toLane="2" via=":0/0_7_0" dir="t" state="m"/>
    <connection from="1/0to1/1" to="1/1to0/1" fromLane="0" toLane="0" via=":1/1_0_0" dir="l" state="M"/>
    <connection from="1/0to1/1" to="1/1to0/1" fromLane="1" toLane="1" via=":1/1_0_1" dir="l" state="M"/>
    <connection from="1/0to1/1" to="1/1to0/1" fromLane="2" toLane="2" via=":1/1_0_2" dir="l" state="M"/>
    <connection from="1/0to1/1" to="1/1to1/0" fromLane="2" toLane="2" via=":1/1_3_0" dir="t" state="m"/>
    <connection from="1/1to0/1" to="0/1to0/0" fromLane="0" toLane="0" via=":0/1_0_0" dir="l" state="M"/>
    <connection from="1/1to0/1" to="0/1to0/0" fromLane="1" toLane="1" via=":0/1_0_1" dir="l" state="M"/>
    <connection from="1/1to0/1" to="0/1to0/0" fromLane="2" toLane="2" via=":0/1_0_2" dir="l" state="M"/>
    <connection from="1/1to0/1" to="0/1to1/1" fromLane="2" toLane="2" via=":0/1_3_0" dir="t" state="m"/>
    <connection from="1/1to1/0" to="1/0to0/0" fromLane="0" toLane="0" via=":1/0_0_0" dir="r" state="M"/>
    <connection from="1/1to1/0" to="1/0to0/0" fromLane="1" toLane="1" via=":1/0_0_1" dir="r" state="M"/>
    <connection from="1/1to1/0" to="1/0to0/0" fromLane="2" toLane="2" via=":1/0_0_2" dir="r" state="M"/>
    <connection from="1/1to1/0" to="1/0to1/1" fromLane="2" toLane="2" via=":1/0_3_0" dir="t" state="m"/>

    <connection from=":0/0_0" to="0/0to1/0" fromLane="0" toLane="0" dir="s" state="M"/>
    <connection from=":0/0_0" to="0/0to1/0" fromLane="1" toLane="1" dir="s" state="M"/>
    <connection from=":0/0_0" to="0/0to1/0" fromLane="2" toLane="2" dir="s" state="M"/>
    <connection from=":0/0_3" to="0/0to0/1" fromLane="0" toLane="2" via=":0/0_8_0" dir="s" state="m"/>
    <connection from=":0/0_8" to="0/0to0/1" fromLane="0" toLane="2" dir="s" state="M"/>
    <connection from=":0/0_4" to="0/0to0/1" fromLane="0" toLane="0" dir="s" state="M"/>
    <connection from=":0/0_4" to="0/0to0/1" fromLane="1" toLane="1" dir="s" state="M"/>
    <connection from=":0/0_4" to="0/0to0/1" fromLane="2" toLane="2" dir="s" state="M"/>
    <connection from=":0/0_7" to="0/0to1/0" fromLane="0" toLane="2" via=":0/0_9_0" dir="s" state="m"/>
    <connection from=":0/0_9" to="0/0to1/0" fromLane="0" toLane="2" dir="s" state="M"/>
    <connection from=":0/1_0" to="0/1to0/0" fromLane="0" toLane="0" dir="s" state="M"/>
    <connection from=":0/1_0" to="0/1to0/0" fromLane="1" toLane="1" dir="s" state="M"/>
    <connection from=":0/1_0" to="0/1to0/0" fromLane="2" toLane="2" dir="s" state="M"/>
    <connection from=":0/1_3" to="0/1to1/1" fromLane="0" toLane="2" via=":0/1_8_0" dir="s" state="m"/>
    <connection from=":0/1_8" to="0/1to1/1" fromLane="0" toLane="2" dir="s" state="M"/>
    <connection from=":0/1_4" to="0/1to1/1" fromLane="0" toLane="0" dir="s" state="M"/>
    <connection from=":0/1_4" to="0/1to1/1" fromLane="1" toLane="1" dir="s" state="M"/>
    <connection from=":0/1_4" to="0/1to1/1" fromLane="2" toLane="2" dir="s" state="M"/>
    <connection from=":0/1_7" to="0/1to0/0" fromLane="0" toLane="2" via=":0/1_9_0" dir="s" state="m"/>
    <connection from=":0/1_9" to="0/1to0/0" fromLane="0" toLane="2" dir="s" state="M"/>
    <connection from=":1/0_0" to="1/0to0/0" fromLane="0" toLane="0" dir="s" state="M"/>
    <connection from=":1/0_0" to="1/0to0/0" fromLane="1" toLane="1" dir="s" state="M"/>
    <connection from=":1/0_0" to="1/0to0/0" fromLane="2" toLane="2" dir="s" state="M"/>
    <connection from=":1/0_3" to="1/0to1/1" fromLane="0" toLane="2" via=":1/0_8_0" dir="s" state="m"/>
    <connection from=":1/0_8" to="1/0to1/1" fromLane="0" toLane="2" dir="s" state="M"/>
    <connection from=":1/0_4" to="1/0to1/1" fromLane="0" toLane="0" dir="s" state="M"/>
    <connection from=":1/0_4" to="1/0to1/1" fromLane="1" toLane="1" dir="s" state="M"/>
    <connection from=":1/0_4" to="1/0to1/1" fromLane="2" toLane="2" dir="s" state="M"/>
    <connection from=":1/0_7" to="1/0to0/0" fromLane="0" toLane="2" via=":1/0_9_0" dir="s" state="m"/>
    <connection from=":1/0_9" to="1/0to0/0" fromLane="0" toLane="2" dir="s" state="M"/>
    <connection from=":1/1_0" to="1/1to0/1" fromLane="0" toLane="0" dir="s" state="M"/>
    <connection from=":1/1_0" to="1/1to0/1" fromLane="1" toLane="1" dir="s" state="M"/>
    <connection from=":1/1_0" to="1/1to0/1" fromLane="2" toLane="2" dir="s" state="M"/>
    <connection from=":1/1_3" to="1/1to1/0" fromLane="0" toLane="2" via=":1/1_8_0" dir="s" state="m"/>
    <connection from=":1/1_8" to="1/1to1/0" fromLane="0" toLane="2" dir="s" state="M"/>
    <connection from=":1/1_4" to="1/1to1/0" fromLane="0" toLane="0" dir="s" state="M"/>
    <connection from=":1/1_4" to="1/1to1/0" fromLane="1" toLane="1" dir="s" state="M"/>
    <connection from=":1/1_4" to="1/1to1/0" fromLane="2" toLane="2" dir="s" state="M"/>
    <connection from=":1/1_7" to="1/1to0/1" fromLane="0" toLane="2" via=":1/1_9_0" dir="s" state="m"/>
    <connection from=":1/1_9" to="1/1to0/1" fromLane="0" toLane="2" dir="s" state="M"/>

</net>
