<?xml version="1.0" encoding="UTF-8"?>

<!-- generated on Mon Apr  6 13:51:21 2015 by SUMO netconvert Version 0.15.0
<?xml version="1.0" encoding="UTF-8"?>

<configuration xmlns:xsi="http://www.w3.org/2001/XMLSchema-instance" xsi:noNamespaceSchemaLocation="http://sumo.sf.net/xsd/netconvertConfiguration.xsd">

    <input>
        <sumo-net-file value="Modify_TMAC.net.xml"/>
    </input>

    <output>
        <output-file value="Modify_TMAC.net.xml"/>
    </output>

    <edge_removal>
        <remove-edges.explicit value="161687499#0"/>
    </edge_removal>

    <processing>
        <no-turnarounds value="true"/>
        <offset.disable-normalization value="true"/>
    </processing>

</configuration>
-->

<net version="0.13" xmlns:xsi="http://www.w3.org/2001/XMLSchema-instance" xsi:noNamespaceSchemaLocation="http://sumo.sf.net/xsd/net_file.xsd">

    <location netOffset="-384411.86,-3768390.85" convBoundary="168.46,40.70,734.92,641.55" origBoundary="-118.252381,34.049912,-118.243572,34.055674" projParameter="+proj=utm +zone=11 +ellps=WGS84 +datum=WGS84 +units=m +no_defs"/>

    <edge id=":122718687_0" function="internal">
        <lane id=":122718687_0_0" index="0" speed="27.78" length="0.10" shape="673.76,160.58 673.77,160.57"/>
    </edge>
    <edge id=":122718687_1" function="internal">
        <lane id=":122718687_1_0" index="0" speed="27.78" length="2.41" shape="673.76,160.58 672.28,160.69 671.45,160.29"/>
    </edge>
    <edge id=":122718687_4" function="internal">
        <lane id=":122718687_4_0" index="0" speed="27.78" length="2.41" shape="671.45,160.29 671.27,159.39 671.74,157.98"/>
    </edge>
    <edge id=":122718687_2" function="internal">
        <lane id=":122718687_2_0" index="0" speed="27.78" length="0.10" shape="671.74,157.98 671.74,157.98"/>
    </edge>
    <edge id=":122718687_3" function="internal">
        <lane id=":122718687_3_0" index="0" speed="27.78" length="2.41" shape="671.74,157.98 673.22,157.86 674.05,158.26"/>
    </edge>
    <edge id=":122718687_5" function="internal">
        <lane id=":122718687_5_0" index="0" speed="27.78" length="2.41" shape="674.05,158.26 674.24,159.16 673.77,160.57"/>
    </edge>
    <edge id=":123281798_0" function="internal">
        <lane id=":123281798_0_0" index="0" speed="27.78" length="4.82" shape="278.34,373.17 278.18,371.69 278.55,370.84 279.45,370.63 280.88,371.05"/>
    </edge>
    <edge id=":1737655457_0" function="internal">
        <lane id=":1737655457_0_0" index="0" speed="27.78" length="4.82" shape="383.13,391.31 381.65,391.42 380.81,391.03 380.63,390.13 381.09,388.71"/>
    </edge>
    <edge id=":18166168_0" function="internal">
        <lane id=":18166168_0_0" index="0" speed="19.48" length="5.60" shape="539.95,502.45 538.85,501.46 537.66,501.06 536.38,501.26 535.01,502.05"/>
    </edge>
    <edge id=":18166168_1" function="internal">
        <lane id=":18166168_1_0" index="0" speed="27.78" length="22.92" shape="542.50,500.36 538.46,495.40 535.27,491.47 532.09,487.53 528.10,482.53"/>
    </edge>
    <edge id=":18166168_2" function="internal">
        <lane id=":18166168_2_0" index="0" speed="19.48" length="3.23" shape="542.50,500.36 540.74,497.65"/>
    </edge>
    <edge id=":18166168_20" function="internal">
        <lane id=":18166168_20_0" index="0" speed="19.48" length="15.24" shape="540.74,497.65 539.36,495.55 538.21,491.23 539.05,487.42 541.87,484.10"/>
    </edge>
    <edge id=":18166168_3" function="internal">
        <lane id=":18166168_3_0" index="0" speed="27.78" length="2.41" shape="542.50,500.36 542.36,498.88 542.74,498.04"/>
    </edge>
    <edge id=":18166168_21" function="internal">
        <lane id=":18166168_21_0" index="0" speed="27.78" length="2.41" shape="542.74,498.04 543.63,497.83 545.06,498.27"/>
    </edge>
    <edge id=":18166168_4" function="internal">
        <lane id=":18166168_4_0" index="0" speed="19.48" length="5.01" shape="548.07,491.82 547.13,492.82 546.74,493.89 546.90,495.00 547.61,496.18"/>
    </edge>
    <edge id=":18166168_5" function="internal">
        <lane id=":18166168_5_0" index="0" speed="11.18" length="16.59" shape="548.07,491.82 544.23,494.90 541.59,496.99 538.92,499.06 535.01,502.05"/>
    </edge>
    <edge id=":18166168_6" function="internal">
        <lane id=":18166168_6_0" index="0" speed="11.18" length="16.51" shape="546.00,489.25 542.18,492.31 539.55,494.40 536.90,496.45 533.01,499.43"/>
    </edge>
    <edge id=":18166168_7" function="internal">
        <lane id=":18166168_7_0" index="0" speed="11.18" length="16.44" shape="543.94,486.67 540.13,489.72 537.51,491.80 534.88,493.84 531.00,496.81"/>
    </edge>
    <edge id=":18166168_8" function="internal">
        <lane id=":18166168_8_0" index="0" speed="19.48" length="7.17" shape="543.94,486.67 540.09,488.71 537.28,488.71"/>
    </edge>
    <edge id=":18166168_22" function="internal">
        <lane id=":18166168_22_0" index="0" speed="19.48" length="11.39" shape="537.28,488.71 536.16,488.70 532.16,486.64 528.10,482.53"/>
    </edge>
    <edge id=":18166168_9" function="internal">
        <lane id=":18166168_9_0" index="0" speed="11.18" length="2.41" shape="543.94,486.67 542.46,486.80 541.62,486.42"/>
    </edge>
    <edge id=":18166168_23" function="internal">
        <lane id=":18166168_23_0" index="0" speed="11.18" length="2.41" shape="541.62,486.42 541.42,485.52 541.87,484.10"/>
    </edge>
    <edge id=":18166168_10" function="internal">
        <lane id=":18166168_10_0" index="0" speed="19.48" length="5.16" shape="533.25,478.41 534.29,479.39 535.38,479.81 536.53,479.66 537.74,478.95"/>
    </edge>
    <edge id=":18166168_11" function="internal">
        <lane id=":18166168_11_0" index="0" speed="27.78" length="22.88" shape="530.67,480.47 534.67,485.46 537.83,489.40 541.02,493.32 545.06,498.27"/>
    </edge>
    <edge id=":18166168_12" function="internal">
        <lane id=":18166168_12_0" index="0" speed="19.48" length="3.24" shape="530.67,480.47 532.41,483.21"/>
    </edge>
    <edge id=":18166168_24" function="internal">
        <lane id=":18166168_24_0" index="0" speed="19.48" length="15.37" shape="532.41,483.21 533.78,485.35 534.87,489.70 533.94,493.52 531.00,496.81"/>
    </edge>
    <edge id=":18166168_13" function="internal">
        <lane id=":18166168_13_0" index="0" speed="27.78" length="2.41" shape="530.67,480.47 530.80,481.96 530.42,482.79"/>
    </edge>
    <edge id=":18166168_25" function="internal">
        <lane id=":18166168_25_0" index="0" speed="27.78" length="2.41" shape="530.42,482.79 529.51,482.99 528.10,482.53"/>
    </edge>
    <edge id=":18166168_14" function="internal">
        <lane id=":18166168_14_0" index="0" speed="19.48" length="5.03" shape="524.99,488.95 525.95,487.96 526.36,486.91 526.22,485.78 525.52,484.59"/>
    </edge>
    <edge id=":18166168_15" function="internal">
        <lane id=":18166168_15_0" index="0" speed="11.18" length="16.21" shape="524.99,488.95 528.81,486.02 531.41,484.01 533.99,481.96 537.74,478.95"/>
    </edge>
    <edge id=":18166168_16" function="internal">
        <lane id=":18166168_16_0" index="0" speed="11.18" length="16.28" shape="526.99,491.57 530.83,488.63 533.44,486.60 536.04,484.55 539.81,481.53"/>
    </edge>
    <edge id=":18166168_17" function="internal">
        <lane id=":18166168_17_0" index="0" speed="11.18" length="16.36" shape="529.00,494.19 532.85,491.24 535.48,489.20 538.08,487.14 541.87,484.10"/>
    </edge>
    <edge id=":18166168_18" function="internal">
        <lane id=":18166168_18_0" index="0" speed="19.48" length="7.34" shape="529.00,494.19 532.94,492.20 535.87,492.21"/>
    </edge>
    <edge id=":18166168_26" function="internal">
        <lane id=":18166168_26_0" index="0" speed="19.48" length="11.32" shape="535.87,492.21 536.93,492.21 540.97,494.24 545.06,498.27"/>
    </edge>
    <edge id=":18166168_19" function="internal">
        <lane id=":18166168_19_0" index="0" speed="11.18" length="2.41" shape="529.00,494.19 530.48,494.09 531.31,494.50"/>
    </edge>
    <edge id=":18166168_27" function="internal">
        <lane id=":18166168_27_0" index="0" speed="11.18" length="2.41" shape="531.31,494.50 531.48,495.40 531.00,496.81"/>
    </edge>
    <edge id=":18166169_0" function="internal">
        <lane id=":18166169_0_0" index="0" speed="19.48" length="5.05" shape="639.82,422.24 638.80,421.28 637.73,420.87 636.61,421.02 635.42,421.71"/>
    </edge>
    <edge id=":18166169_1" function="internal">
        <lane id=":18166169_1_0" index="0" speed="27.78" length="22.76" shape="642.40,420.18 638.42,415.21 635.29,411.29 632.16,407.38 628.18,402.41"/>
    </edge>
    <edge id=":18166169_2" function="internal">
        <lane id=":18166169_2_0" index="0" speed="19.48" length="3.18" shape="642.40,420.18 640.69,417.50"/>
    </edge>
    <edge id=":18166169_20" function="internal">
        <lane id=":18166169_20_0" index="0" speed="19.48" length="15.32" shape="640.69,417.50 639.30,415.33 638.20,411.00 639.09,407.19 641.96,403.90"/>
    </edge>
    <edge id=":18166169_3" function="internal">
        <lane id=":18166169_3_0" index="0" speed="27.78" length="2.41" shape="642.40,420.18 642.27,418.70 642.65,417.86"/>
    </edge>
    <edge id=":18166169_21" function="internal">
        <lane id=":18166169_21_0" index="0" speed="27.78" length="2.41" shape="642.65,417.86 643.56,417.67 644.97,418.12"/>
    </edge>
    <edge id=":18166169_4" function="internal">
        <lane id=":18166169_4_0" index="0" speed="19.48" length="5.01" shape="648.06,411.70 647.11,412.70 646.70,413.75 646.85,414.87 647.55,416.06"/>
    </edge>
    <edge id=":18166169_5" function="internal">
        <lane id=":18166169_5_0" index="0" speed="11.18" length="16.12" shape="648.06,411.70 644.29,414.65 641.72,416.68 639.16,418.72 635.42,421.71"/>
    </edge>
    <edge id=":18166169_6" function="internal">
        <lane id=":18166169_6_0" index="0" speed="11.18" length="16.16" shape="646.03,409.10 642.25,412.06 639.67,414.09 637.10,416.14 633.36,419.14"/>
    </edge>
    <edge id=":18166169_7" function="internal">
        <lane id=":18166169_7_0" index="0" speed="11.18" length="16.20" shape="643.99,406.50 640.21,409.47 637.62,411.50 635.04,413.56 631.29,416.57"/>
    </edge>
    <edge id=":18166169_8" function="internal">
        <lane id=":18166169_8_0" index="0" speed="19.48" length="7.20" shape="643.99,406.50 640.11,408.51 637.28,408.50"/>
    </edge>
    <edge id=":18166169_22" function="internal">
        <lane id=":18166169_22_0" index="0" speed="19.48" length="11.28" shape="637.28,408.50 636.18,408.49 632.21,406.46 628.18,402.41"/>
    </edge>
    <edge id=":18166169_9" function="internal">
        <lane id=":18166169_9_0" index="0" speed="11.18" length="2.41" shape="643.99,406.50 642.51,406.62 641.68,406.22"/>
    </edge>
    <edge id=":18166169_23" function="internal">
        <lane id=":18166169_23_0" index="0" speed="11.18" length="2.41" shape="641.68,406.22 641.49,405.32 641.96,403.90"/>
    </edge>
    <edge id=":18166169_10" function="internal">
        <lane id=":18166169_10_0" index="0" speed="19.48" length="5.21" shape="633.33,398.28 634.35,399.23 635.46,399.62 636.64,399.44 637.90,398.71"/>
    </edge>
    <edge id=":18166169_11" function="internal">
        <lane id=":18166169_11_0" index="0" speed="27.78" length="22.76" shape="630.76,400.34 634.73,405.32 637.86,409.23 641.00,413.15 644.97,418.12"/>
    </edge>
    <edge id=":18166169_12" function="internal">
        <lane id=":18166169_12_0" index="0" speed="19.48" length="3.13" shape="630.76,400.34 632.44,402.98"/>
    </edge>
    <edge id=":18166169_24" function="internal">
        <lane id=":18166169_24_0" index="0" speed="19.48" length="15.26" shape="632.44,402.98 633.83,405.16 634.95,409.47 634.10,413.27 631.29,416.57"/>
    </edge>
    <edge id=":18166169_13" function="internal">
        <lane id=":18166169_13_0" index="0" speed="27.78" length="2.41" shape="630.76,400.34 630.88,401.83 630.50,402.66"/>
    </edge>
    <edge id=":18166169_25" function="internal">
        <lane id=":18166169_25_0" index="0" speed="27.78" length="2.41" shape="630.50,402.66 629.60,402.86 628.18,402.41"/>
    </edge>
    <edge id=":18166169_14" function="internal">
        <lane id=":18166169_14_0" index="0" speed="19.48" length="5.02" shape="625.10,408.84 626.04,407.84 626.44,406.77 626.30,405.65 625.60,404.47"/>
    </edge>
    <edge id=":18166169_15" function="internal">
        <lane id=":18166169_15_0" index="0" speed="11.18" length="16.33" shape="625.10,408.84 628.88,405.81 631.47,403.74 634.08,401.69 637.90,398.71"/>
    </edge>
    <edge id=":18166169_16" function="internal">
        <lane id=":18166169_16_0" index="0" speed="11.18" length="16.29" shape="627.16,411.42 630.93,408.39 633.52,406.33 636.12,404.28 639.93,401.30"/>
    </edge>
    <edge id=":18166169_17" function="internal">
        <lane id=":18166169_17_0" index="0" speed="11.18" length="16.25" shape="629.23,413.99 632.99,410.97 635.57,408.92 638.16,406.88 641.96,403.90"/>
    </edge>
    <edge id=":18166169_18" function="internal">
        <lane id=":18166169_18_0" index="0" speed="19.48" length="7.11" shape="629.23,413.99 633.05,411.97 635.84,411.98"/>
    </edge>
    <edge id=":18166169_26" function="internal">
        <lane id=":18166169_26_0" index="0" speed="19.48" length="11.34" shape="635.84,411.98 636.95,411.98 640.93,414.03 644.97,418.12"/>
    </edge>
    <edge id=":18166169_19" function="internal">
        <lane id=":18166169_19_0" index="0" speed="11.18" length="2.41" shape="629.23,413.99 630.71,413.86 631.55,414.25"/>
    </edge>
    <edge id=":18166169_27" function="internal">
        <lane id=":18166169_27_0" index="0" speed="11.18" length="2.41" shape="631.55,414.25 631.74,415.15 631.29,416.57"/>
    </edge>
    <edge id=":1966359010_0" function="internal">
        <lane id=":1966359010_0_0" index="0" speed="27.78" length="4.47" shape="571.45,243.37 571.13,247.83"/>
    </edge>
    <edge id=":1966359010_1" function="internal">
        <lane id=":1966359010_1_0" index="0" speed="27.78" length="3.01" shape="571.45,243.37 569.09,245.23"/>
    </edge>
    <edge id=":1966359010_2" function="internal">
        <lane id=":1966359010_2_0" index="0" speed="27.78" length="2.41" shape="571.45,243.37 569.97,243.49 569.13,243.10"/>
    </edge>
    <edge id=":1966359010_5" function="internal">
        <lane id=":1966359010_5_0" index="0" speed="27.78" length="2.41" shape="569.13,243.10 568.94,242.20 569.40,240.79"/>
    </edge>
    <edge id=":1966359010_3" function="internal">
        <lane id=":1966359010_3_0" index="0" speed="27.78" length="4.45" shape="565.01,240.04 569.40,240.79"/>
    </edge>
    <edge id=":1966359010_4" function="internal">
        <lane id=":1966359010_4_0" index="0" speed="27.78" length="2.41" shape="567.05,242.64 568.53,242.52 569.37,242.92"/>
    </edge>
    <edge id=":1966359010_6" function="internal">
        <lane id=":1966359010_6_0" index="0" speed="27.78" length="2.41" shape="569.37,242.92 569.55,243.82 569.09,245.23"/>
    </edge>
    <edge id=":1966359020_0" function="internal">
        <lane id=":1966359020_0_0" index="0" speed="27.78" length="4.64" shape="386.05,405.33 385.37,409.92"/>
    </edge>
    <edge id=":1966359020_1" function="internal">
        <lane id=":1966359020_1_0" index="0" speed="27.78" length="3.13" shape="386.05,405.33 383.53,407.18"/>
    </edge>
    <edge id=":2164323089_0" function="internal">
        <lane id=":2164323089_0_0" index="0" speed="27.78" length="0.10" shape="527.94,86.02 527.94,86.02"/>
    </edge>
    <edge id=":2164323089_1" function="internal">
        <lane id=":2164323089_1_0" index="0" speed="27.78" length="0.10" shape="530.53,83.97 530.53,83.97"/>
    </edge>
    <edge id=":2164323089_2" function="internal">
        <lane id=":2164323089_2_0" index="0" speed="27.78" length="0.10" shape="533.11,81.93 533.11,81.93"/>
    </edge>
    <edge id=":2164323089_3" function="internal">
        <lane id=":2164323089_3_0" index="0" speed="27.78" length="0.10" shape="535.70,79.88 535.70,79.88"/>
    </edge>
    <edge id=":2164323092_0" function="internal">
        <lane id=":2164323092_0_0" index="0" speed="27.78" length="0.10" shape="540.04,101.29 540.01,101.25"/>
    </edge>
    <edge id=":2164323092_1" function="internal">
        <lane id=":2164323092_1_0" index="0" speed="27.78" length="0.10" shape="542.61,99.22 542.60,99.20"/>
    </edge>
    <edge id=":2164323092_2" function="internal">
        <lane id=":2164323092_2_0" index="0" speed="27.78" length="0.10" shape="545.17,97.14 545.18,97.16"/>
    </edge>
    <edge id=":2164323092_3" function="internal">
        <lane id=":2164323092_3_0" index="0" speed="27.78" length="0.10" shape="547.74,95.06 547.77,95.11"/>
    </edge>
    <edge id=":2164323104_0" function="internal">
        <lane id=":2164323104_0_0" index="0" speed="27.78" length="0.10" shape="598.19,173.12 598.20,173.13"/>
    </edge>
    <edge id=":2164323104_1" function="internal">
        <lane id=":2164323104_1_0" index="0" speed="27.78" length="0.10" shape="600.76,171.05 600.77,171.06"/>
    </edge>
    <edge id=":2164323104_2" function="internal">
        <lane id=":2164323104_2_0" index="0" speed="27.78" length="0.10" shape="603.34,168.99 603.34,168.99"/>
    </edge>
    <edge id=":2164323104_3" function="internal">
        <lane id=":2164323104_3_0" index="0" speed="27.78" length="0.10" shape="605.91,166.92 605.91,166.92"/>
    </edge>
    <edge id=":2164323107_0" function="internal">
        <lane id=":2164323107_0_0" index="0" speed="27.78" length="0.10" shape="443.95,177.37 443.95,177.37"/>
    </edge>
    <edge id=":2164323107_1" function="internal">
        <lane id=":2164323107_1_0" index="0" speed="27.78" length="0.10" shape="446.53,175.31 446.53,175.31"/>
    </edge>
    <edge id=":2164323107_2" function="internal">
        <lane id=":2164323107_2_0" index="0" speed="27.78" length="2.41" shape="446.53,175.31 446.40,173.83 446.79,172.99"/>
    </edge>
    <edge id=":2164323107_6" function="internal">
        <lane id=":2164323107_6_0" index="0" speed="27.78" length="2.41" shape="446.79,172.99 447.69,172.80 449.11,173.25"/>
    </edge>
    <edge id=":2164323107_3" function="internal">
        <lane id=":2164323107_3_0" index="0" speed="27.78" length="0.10" shape="451.69,171.19 451.69,171.19"/>
    </edge>
    <edge id=":2164323107_4" function="internal">
        <lane id=":2164323107_4_0" index="0" speed="27.78" length="0.10" shape="449.11,173.25 449.11,173.25"/>
    </edge>
    <edge id=":2164323107_5" function="internal">
        <lane id=":2164323107_5_0" index="0" speed="27.78" length="2.41" shape="449.11,173.25 449.24,174.73 448.85,175.57"/>
    </edge>
    <edge id=":2164323107_7" function="internal">
        <lane id=":2164323107_7_0" index="0" speed="27.78" length="2.41" shape="448.85,175.57 447.95,175.76 446.53,175.31"/>
    </edge>
    <edge id=":2164323114_0" function="internal">
        <lane id=":2164323114_0_0" index="0" speed="27.78" length="0.10" shape="582.15,234.90 582.13,234.91"/>
    </edge>
    <edge id=":2164323114_1" function="internal">
        <lane id=":2164323114_1_0" index="0" speed="27.78" length="2.41" shape="582.15,234.90 580.68,235.06 579.83,234.69"/>
    </edge>
    <edge id=":2164323114_4" function="internal">
        <lane id=":2164323114_4_0" index="0" speed="27.78" length="2.41" shape="579.83,234.69 579.62,233.79 580.04,232.36"/>
    </edge>
    <edge id=":2164323114_2" function="internal">
        <lane id=":2164323114_2_0" index="0" speed="27.78" length="0.10" shape="580.09,232.33 580.04,232.36"/>
    </edge>
    <edge id=":2164323114_3" function="internal">
        <lane id=":2164323114_3_0" index="0" speed="27.78" length="2.41" shape="580.09,232.33 581.57,232.21 582.40,232.60"/>
    </edge>
    <edge id=":2164323114_5" function="internal">
        <lane id=":2164323114_5_0" index="0" speed="27.78" length="2.41" shape="582.40,232.60 582.59,233.50 582.13,234.91"/>
    </edge>
    <edge id=":2164323118_0" function="internal">
        <lane id=":2164323118_0_0" index="0" speed="27.78" length="0.10" shape="501.96,249.90 501.96,249.90"/>
    </edge>
    <edge id=":2164323118_1" function="internal">
        <lane id=":2164323118_1_0" index="0" speed="27.78" length="0.10" shape="504.54,247.84 504.54,247.84"/>
    </edge>
    <edge id=":2164323118_2" function="internal">
        <lane id=":2164323118_2_0" index="0" speed="27.78" length="2.41" shape="504.54,247.84 504.41,246.36 504.80,245.52"/>
    </edge>
    <edge id=":2164323118_6" function="internal">
        <lane id=":2164323118_6_0" index="0" speed="27.78" length="2.41" shape="504.80,245.52 505.70,245.33 507.12,245.78"/>
    </edge>
    <edge id=":2164323118_3" function="internal">
        <lane id=":2164323118_3_0" index="0" speed="27.78" length="0.10" shape="509.70,243.72 509.70,243.72"/>
    </edge>
    <edge id=":2164323118_4" function="internal">
        <lane id=":2164323118_4_0" index="0" speed="27.78" length="0.10" shape="507.12,245.78 507.12,245.78"/>
    </edge>
    <edge id=":2164323118_5" function="internal">
        <lane id=":2164323118_5_0" index="0" speed="27.78" length="2.41" shape="507.12,245.78 507.25,247.26 506.86,248.10"/>
    </edge>
    <edge id=":2164323118_7" function="internal">
        <lane id=":2164323118_7_0" index="0" speed="27.78" length="2.41" shape="506.86,248.10 505.96,248.29 504.54,247.84"/>
    </edge>
    <edge id=":25062104_0" function="internal">
        <lane id=":25062104_0_0" index="0" speed="27.78" length="2.41" shape="304.59,202.88 304.46,201.40 304.85,200.56"/>
    </edge>
    <edge id=":25062104_3" function="internal">
        <lane id=":25062104_3_0" index="0" speed="27.78" length="2.41" shape="304.85,200.56 305.75,200.37 307.17,200.82"/>
    </edge>
    <edge id=":25062104_1" function="internal">
        <lane id=":25062104_1_0" index="0" speed="27.78" length="4.99" shape="310.22,194.40 309.29,195.40 308.90,196.46 309.05,197.58 309.75,198.76"/>
    </edge>
    <edge id=":25062104_2" function="internal">
        <lane id=":25062104_2_0" index="0" speed="27.78" length="10.29" shape="308.14,191.84 306.23,193.90 305.42,196.09 305.74,198.39 307.17,200.82"/>
    </edge>
    <edge id=":250649832_0" function="internal">
        <lane id=":250649832_0_0" index="0" speed="27.78" length="9.25" shape="336.21,447.77 330.38,440.59"/>
    </edge>
    <edge id=":250649832_1" function="internal">
        <lane id=":250649832_1_0" index="0" speed="27.78" length="9.33" shape="338.79,445.72 332.91,438.48"/>
    </edge>
    <edge id=":250649832_2" function="internal">
        <lane id=":250649832_2_0" index="0" speed="27.78" length="2.41" shape="338.79,445.72 338.66,444.23 339.05,443.40"/>
    </edge>
    <edge id=":250649832_8" function="internal">
        <lane id=":250649832_8_0" index="0" speed="27.78" length="2.41" shape="339.05,443.40 339.96,443.21 341.37,443.66"/>
    </edge>
    <edge id=":250649832_3" function="internal">
        <lane id=":250649832_3_0" index="0" speed="27.78" length="5.10" shape="344.63,437.28 343.58,438.22 343.12,439.26 343.24,440.39 343.96,441.61"/>
    </edge>
    <edge id=":250649832_4" function="internal">
        <lane id=":250649832_4_0" index="0" speed="27.78" length="3.58" shape="342.79,434.54 339.75,436.44"/>
    </edge>
    <edge id=":250649832_9" function="internal">
        <lane id=":250649832_9_0" index="0" speed="27.78" length="7.45" shape="339.75,436.44 339.01,436.91 336.10,438.35 334.07,438.88 332.91,438.48"/>
    </edge>
    <edge id=":250649832_5" function="internal">
        <lane id=":250649832_5_0" index="0" speed="27.78" length="9.49" shape="337.97,434.25 343.96,441.61"/>
    </edge>
    <edge id=":250649832_6" function="internal">
        <lane id=":250649832_6_0" index="0" speed="27.78" length="9.41" shape="335.44,436.36 341.37,443.66"/>
    </edge>
    <edge id=":250649832_7" function="internal">
        <lane id=":250649832_7_0" index="0" speed="27.78" length="2.41" shape="335.44,436.36 335.60,437.84 335.23,438.69"/>
    </edge>
    <edge id=":250649832_10" function="internal">
        <lane id=":250649832_10_0" index="0" speed="27.78" length="2.41" shape="335.23,438.69 334.33,438.90 332.91,438.48"/>
    </edge>
    <edge id=":268642905_0" function="internal">
        <lane id=":268642905_0_0" index="0" speed="11.18" length="4.82" shape="339.05,642.87 337.56,642.95 336.73,642.55 336.57,641.64 337.05,640.23"/>
    </edge>
    <edge id=":33078912_0" function="internal">
        <lane id=":33078912_0_0" index="0" speed="27.78" length="4.82" shape="724.40,117.12 725.88,117.01 726.71,117.41 726.89,118.31 726.42,119.72"/>
    </edge>
    <edge id=":33078916_0" function="internal">
        <lane id=":33078916_0_0" index="0" speed="27.78" length="8.43" shape="429.17,364.03 427.75,362.88 426.47,363.15 425.34,364.84 424.34,367.95"/>
    </edge>
    <edge id=":33078916_1" function="internal">
        <lane id=":33078916_1_0" index="0" speed="27.78" length="9.24" shape="429.17,364.03 427.79,363.06 425.97,363.03 423.69,363.94 420.97,365.79"/>
    </edge>
    <edge id=":33078916_2" function="internal">
        <lane id=":33078916_2_0" index="0" speed="27.78" length="16.70" shape="429.17,364.03 426.07,360.16 423.95,357.51 421.84,354.86 418.74,350.99"/>
    </edge>
    <edge id=":33078916_3" function="internal">
        <lane id=":33078916_3_0" index="0" speed="27.78" length="16.70" shape="431.74,361.97 428.65,358.10 426.53,355.45 424.41,352.80 421.32,348.93"/>
    </edge>
    <edge id=":33078916_4" function="internal">
        <lane id=":33078916_4_0" index="0" speed="27.78" length="3.23" shape="431.74,361.97 430.09,359.20"/>
    </edge>
    <edge id=":33078916_22" function="internal">
        <lane id=":33078916_22_0" index="0" speed="27.78" length="12.88" shape="430.09,359.20 429.42,358.09 428.86,354.45 430.06,351.07 433.02,347.93"/>
    </edge>
    <edge id=":33078916_5" function="internal">
        <lane id=":33078916_5_0" index="0" speed="27.78" length="2.41" shape="431.74,361.97 431.62,360.49 432.00,359.65"/>
    </edge>
    <edge id=":33078916_23" function="internal">
        <lane id=":33078916_23_0" index="0" speed="27.78" length="2.41" shape="432.00,359.65 432.90,359.46 434.32,359.91"/>
    </edge>
    <edge id=":33078916_6" function="internal">
        <lane id=":33078916_6_0" index="0" speed="27.78" length="5.41" shape="437.10,353.12 436.17,354.13 435.83,355.26 436.07,356.50 436.90,357.85"/>
    </edge>
    <edge id=":33078916_7" function="internal">
        <lane id=":33078916_7_0" index="0" speed="27.78" length="19.90" shape="437.10,353.12 432.03,357.30 428.28,360.98 425.75,364.43 424.34,367.95"/>
    </edge>
    <edge id=":33078916_8" function="internal">
        <lane id=":33078916_8_0" index="0" speed="27.78" length="20.51" shape="435.06,350.52 430.33,354.24 427.00,356.86 423.66,359.47 418.93,363.19"/>
    </edge>
    <edge id=":33078916_9" function="internal">
        <lane id=":33078916_9_0" index="0" speed="27.78" length="3.18" shape="435.06,350.52 432.31,352.11"/>
    </edge>
    <edge id=":33078916_24" function="internal">
        <lane id=":33078916_24_0" index="0" speed="27.78" length="12.57" shape="432.31,352.11 431.33,352.68 427.80,353.13 424.46,351.88 421.32,348.93"/>
    </edge>
    <edge id=":33078916_10" function="internal">
        <lane id=":33078916_10_0" index="0" speed="27.78" length="2.41" shape="435.06,350.52 433.58,350.64 432.75,350.24"/>
    </edge>
    <edge id=":33078916_25" function="internal">
        <lane id=":33078916_25_0" index="0" speed="27.78" length="2.41" shape="432.75,350.24 432.56,349.34 433.02,347.93"/>
    </edge>
    <edge id=":33078916_11" function="internal">
        <lane id=":33078916_11_0" index="0" speed="27.78" length="5.17" shape="426.48,344.81 427.51,345.78 428.60,346.19 429.76,346.04 430.99,345.33"/>
    </edge>
    <edge id=":33078916_12" function="internal">
        <lane id=":33078916_12_0" index="0" speed="27.78" length="16.70" shape="426.48,344.81 429.57,348.68 431.69,351.33 433.81,353.98 436.90,357.85"/>
    </edge>
    <edge id=":33078916_13" function="internal">
        <lane id=":33078916_13_0" index="0" speed="27.78" length="16.70" shape="423.90,346.87 426.99,350.74 429.11,353.39 431.23,356.04 434.32,359.91"/>
    </edge>
    <edge id=":33078916_14" function="internal">
        <lane id=":33078916_14_0" index="0" speed="27.78" length="5.70" shape="423.90,346.87 425.52,350.19 425.79,352.17"/>
    </edge>
    <edge id=":33078916_26" function="internal">
        <lane id=":33078916_26_0" index="0" speed="27.78" length="15.95" shape="425.79,352.17 426.14,354.81 425.75,360.73 424.34,367.95"/>
    </edge>
    <edge id=":33078916_15" function="internal">
        <lane id=":33078916_15_0" index="0" speed="27.78" length="5.77" shape="423.90,346.87 425.88,350.75 425.82,352.16"/>
    </edge>
    <edge id=":33078916_27" function="internal">
        <lane id=":33078916_27_0" index="0" speed="27.78" length="13.54" shape="425.82,352.16 425.71,354.76 423.39,358.91 418.93,363.19"/>
    </edge>
    <edge id=":33078916_16" function="internal">
        <lane id=":33078916_16_0" index="0" speed="27.78" length="2.41" shape="423.90,346.87 424.03,348.35 423.64,349.19"/>
    </edge>
    <edge id=":33078916_28" function="internal">
        <lane id=":33078916_28_0" index="0" speed="27.78" length="2.41" shape="423.64,349.19 422.74,349.38 421.32,348.93"/>
    </edge>
    <edge id=":33078916_17" function="internal">
        <lane id=":33078916_17_0" index="0" speed="27.78" length="8.76" shape="414.86,358.00 417.29,355.84 418.74,353.96 419.23,352.34 418.74,350.99"/>
    </edge>
    <edge id=":33078916_18" function="internal">
        <lane id=":33078916_18_0" index="0" speed="27.78" length="20.85" shape="414.86,358.00 419.91,354.69 423.94,352.96 427.97,351.24 433.02,347.93"/>
    </edge>
    <edge id=":33078916_19" function="internal">
        <lane id=":33078916_19_0" index="0" speed="27.78" length="7.60" shape="416.89,360.59 422.12,357.30 423.50,356.94"/>
    </edge>